MODEL 1
REMARK VINA RESULT:    -9.188      0.000      0.000
REMARK INTER + INTRA:         -30.194
REMARK INTER:                 -23.422
REMARK INTRA:                  -6.772
REMARK UNBOUND:                -6.772
REMARK WARNING: 32 MAX_TORS EXCEEDED!!!
REMARK  36 active torsions:
REMARK  status: ('A' for Active; 'I' for Inactive)
REMARK    1  A    between atoms: C1A_2  and  O24_82 
REMARK    2  A    between atoms: C1B_3  and  O4A_40 
REMARK    3  A    between atoms: C1C_4  and  O27_84 
REMARK    4  A    between atoms: C1D_5  and  O2C_17 
REMARK    5  A    between atoms: C1E_6  and  O2D_18 
REMARK    6  A    between atoms: C1F_7  and  C7F_66 
REMARK    7  A    between atoms: C2_8  and  O30_86 
REMARK    8  A    between atoms: C2A_9  and  O2A_15 
REMARK    9  A    between atoms: C2B_10  and  O2B_16 
REMARK   10  A    between atoms: C2C_11  and  O2C_17 
REMARK   11  A    between atoms: C2D_12  and  O2D_18 
REMARK   12  A    between atoms: C2E_13  and  O2E_19 
REMARK   13  A    between atoms: C3A_21  and  O3A_27 
REMARK   14  A    between atoms: C3B_22  and  O3B_28 
REMARK   15  A    between atoms: C3C_23  and  O3C_29 
REMARK   16  A    between atoms: C3D_24  and  O3D_30 
REMARK   17  A    between atoms: C3E_25  and  O3E_31 
REMARK   18  A    between atoms: C3F_26  and  O3F_32 
REMARK   19  A    between atoms: C4A_34  and  O4A_40 
REMARK   20  A    between atoms: C4B_35  and  O4B_41 
REMARK   21  A    between atoms: C4C_36  and  O4C_42 
REMARK   22  A    between atoms: C4D_37  and  O4D_43 
REMARK   23  A    between atoms: C4E_38  and  O4E_44 
REMARK   24  A    between atoms: C4F_39  and  O4F_45 
REMARK   25  A    between atoms: C5D_50  and  C6D_61 
REMARK   26  A    between atoms: C5E_51  and  C6E_62 
REMARK   27  A    between atoms: C6_58  and  O29_85 
REMARK   28  A    between atoms: C6D_61  and  O6D_64 
REMARK   29  A    between atoms: C6E_62  and  O6E_65 
REMARK   30  A    between atoms: O6D_64  and  C9F_69 
REMARK   31  A    between atoms: C8F_67  and  C9F_69 
REMARK   32  A    between atoms: C10_71  and  O27_84 
REMARK   33  A    between atoms: C11_72  and  C14_75 
REMARK   34  A    between atoms: C16_77  and  O25_83 
REMARK   35  A    between atoms: C17_78  and  O24_82 
REMARK   36  A    between atoms: C18_79  and  O23_81 
ROOT
ATOM      1  C1C 3L9 A   1      -4.223   4.554 -26.262  0.00  0.00     0.298 C 
ATOM      2  C2C 3L9 A   1      -5.588   4.900 -26.751  0.00  0.00     0.211 C 
ATOM      3  C3C 3L9 A   1      -5.433   6.198 -27.596  0.00  0.00     0.183 C 
ATOM      4  C4C 3L9 A   1      -4.468   5.966 -28.766  0.00  0.00     0.178 C 
ATOM      5  C5C 3L9 A   1      -3.156   5.355 -28.198  0.00  0.00     0.152 C 
ATOM      6  O5C 3L9 A   1      -3.391   4.323 -27.299  0.00  0.00    -0.351 OA
ATOM      7  C6C 3L9 A   1      -2.166   4.902 -29.244  0.00  0.00     0.042 C 
ENDROOT
BRANCH   1   8
ATOM      8  O27 3L9 A   1      -3.700   5.562 -25.433  0.00  0.00    -0.311 OA
BRANCH   8   9
ATOM      9  C10 3L9 A   1      -4.122   5.562 -24.104  0.00  0.00     0.157 C 
ATOM     10  C9  3L9 A   1      -4.750   6.757 -23.577  0.00  0.00     0.223 C 
ATOM     11  C3  3L9 A   1      -4.738   7.103 -22.192  0.00  0.00     0.084 A 
ATOM     12  O13 3L9 A   1      -5.414   7.439 -24.423  0.00  0.00    -0.284 OA
ATOM     13  C2  3L9 A   1      -5.307   8.177 -21.644  0.00  0.00     0.085 A 
ATOM     14  C4  3L9 A   1      -3.971   6.261 -21.351  0.00  0.00     0.096 A 
ATOM     15  C1  3L9 A   1      -5.218   8.476 -20.325  0.00  0.00     0.074 A 
ATOM     16  C6  3L9 A   1      -4.491   7.644 -19.473  0.00  0.00     0.071 A 
ATOM     17  C5  3L9 A   1      -3.847   6.540 -19.999  0.00  0.00     0.075 A 
ATOM     18  O12 3L9 A   1      -3.382   5.189 -21.857  0.00  0.00    -0.306 OA
ATOM     19  C11 3L9 A   1      -3.163   4.940 -23.167  0.00  0.00     0.124 C 
BRANCH  13  20
ATOM     20  O30 3L9 A   1      -6.051   8.943 -22.435  0.00  0.00    -0.360 OA
ATOM     21  H64 3L9 A   1      -6.431   9.659 -21.921  0.00  0.00     0.217 HD
ENDBRANCH  13  20
BRANCH  16  22
ATOM     22  O29 3L9 A   1      -4.425   7.923 -18.217  0.00  0.00    -0.361 OA
ATOM     23  H63 3L9 A   1      -4.415   8.876 -18.100  0.00  0.00     0.217 HD
ENDBRANCH  16  22
BRANCH  19  24
ATOM     24  C14 3L9 A   1      -2.432   3.741 -23.551  0.00  0.00     0.006 A 
ATOM     25  C15 3L9 A   1      -1.872   3.471 -24.766  0.00  0.00     0.054 A 
ATOM     26  C16 3L9 A   1      -1.173   2.275 -25.071  0.00  0.00     0.102 A 
ATOM     27  C17 3L9 A   1      -0.987   1.278 -24.111  0.00  0.00     0.138 A 
ATOM     28  C18 3L9 A   1      -1.553   1.574 -22.848  0.00  0.00     0.102 A 
ATOM     29  C19 3L9 A   1      -2.240   2.741 -22.613  0.00  0.00     0.054 A 
BRANCH  26  30
ATOM     30  O25 3L9 A   1      -0.712   2.146 -26.268  0.00  0.00    -0.358 OA
ATOM     31  H62 3L9 A   1      -1.213   1.472 -26.734  0.00  0.00     0.217 HD
ENDBRANCH  26  30
BRANCH  27  32
ATOM     32  O24 3L9 A   1      -0.388   0.214 -24.342  0.00  0.00    -0.312 OA
BRANCH  32  33
ATOM     33  C1A 3L9 A   1       0.947   0.184 -24.029  0.00  0.00     0.297 C 
ATOM     34  C2A 3L9 A   1       1.305  -1.277 -23.698  0.00  0.00     0.205 C 
ATOM     35  C3A 3L9 A   1       2.774  -1.387 -23.441  0.00  0.00     0.182 C 
ATOM     36  C4A 3L9 A   1       3.572  -0.826 -24.649  0.00  0.00     0.180 C 
ATOM     37  C5A 3L9 A   1       3.088   0.565 -24.923  0.00  0.00     0.205 C 
ATOM     38  O5A 3L9 A   1       1.686   0.608 -25.119  0.00  0.00    -0.356 OA
BRANCH  34  39
ATOM     39  O2A 3L9 A   1       0.692  -1.582 -22.538  0.00  0.00    -0.388 OA
ATOM     40  H13 3L9 A   1      -0.222  -1.819 -22.711  0.00  0.00     0.210 HD
ENDBRANCH  34  39
BRANCH  35  41
ATOM     41  O3A 3L9 A   1       3.107  -2.714 -23.396  0.00  0.00    -0.390 OA
ATOM     42  H21 3L9 A   1       3.305  -2.964 -22.490  0.00  0.00     0.210 HD
ENDBRANCH  35  41
BRANCH  36  43
ATOM     43  O4A 3L9 A   1       4.911  -0.772 -24.445  0.00  0.00    -0.348 OA
BRANCH  43  44
ATOM     44  C1B 3L9 A   1       5.821  -1.779 -24.790  0.00  0.00     0.292 C 
ATOM     45  C2B 3L9 A   1       5.717  -1.984 -26.308  0.00  0.00     0.204 C 
ATOM     46  C3B 3L9 A   1       6.192  -0.713 -27.007  0.00  0.00     0.183 C 
ATOM     47  C4B 3L9 A   1       7.590  -0.301 -26.475  0.00  0.00     0.178 C 
ATOM     48  C5B 3L9 A   1       7.608  -0.362 -24.933  0.00  0.00     0.152 C 
ATOM     49  C6B 3L9 A   1       9.002  -0.276 -24.337  0.00  0.00     0.042 C 
ATOM     50  O5B 3L9 A   1       6.962  -1.503 -24.437  0.00  0.00    -0.351 OA
BRANCH  45  51
ATOM     51  O2B 3L9 A   1       6.407  -3.027 -26.659  0.00  0.00    -0.388 OA
ATOM     52  H14 3L9 A   1       6.777  -3.444 -25.877  0.00  0.00     0.210 HD
ENDBRANCH  45  51
BRANCH  46  53
ATOM     53  O3B 3L9 A   1       6.182  -0.944 -28.361  0.00  0.00    -0.390 OA
ATOM     54  H22 3L9 A   1       6.936  -0.509 -28.766  0.00  0.00     0.210 HD
ENDBRANCH  46  53
BRANCH  47  55
ATOM     55  O4B 3L9 A   1       7.916   0.925 -26.835  0.00  0.00    -0.390 OA
ATOM     56  H32 3L9 A   1       7.663   1.541 -26.143  0.00  0.00     0.210 HD
ENDBRANCH  47  55
ENDBRANCH  43  44
ENDBRANCH  36  43
ENDBRANCH  32  33
ENDBRANCH  27  32
BRANCH  28  57
ATOM     57  O23 3L9 A   1      -1.423   0.636 -21.949  0.00  0.00    -0.358 OA
ATOM     58  H61 3L9 A   1      -1.046  -0.148 -22.356  0.00  0.00     0.217 HD
ENDBRANCH  28  57
ENDBRANCH  19  24
ENDBRANCH   8   9
ENDBRANCH   1   8
BRANCH   2  59
ATOM     59  O2C 3L9 A   1      -6.213   3.798 -27.283  0.00  0.00    -0.346 OA
BRANCH  59  60
ATOM     60  C1D 3L9 A   1      -7.178   3.165 -26.632  0.00  0.00     0.292 C 
ATOM     61  C2D 3L9 A   1      -6.938   1.674 -26.245  0.00  0.00     0.211 C 
ATOM     62  C3D 3L9 A   1      -8.184   1.104 -25.426  0.00  0.00     0.183 C 
ATOM     63  C4D 3L9 A   1      -8.685   2.061 -24.332  0.00  0.00     0.180 C 
ATOM     64  C5D 3L9 A   1      -9.006   3.409 -24.964  0.00  0.00     0.180 C 
ATOM     65  O5D 3L9 A   1      -7.898   3.916 -25.695  0.00  0.00    -0.348 OA
BRANCH  61  66
ATOM     66  O2D 3L9 A   1      -6.752   0.917 -27.376  0.00  0.00    -0.346 OA
BRANCH  66  67
ATOM     67  C1E 3L9 A   1      -5.664   0.231 -27.614  0.00  0.00     0.292 C 
ATOM     68  C2E 3L9 A   1      -4.514   1.182 -27.940  0.00  0.00     0.204 C 
ATOM     69  C3E 3L9 A   1      -3.264   0.353 -28.204  0.00  0.00     0.183 C 
ATOM     70  C4E 3L9 A   1      -2.934  -0.482 -26.913  0.00  0.00     0.180 C 
ATOM     71  C5E 3L9 A   1      -4.157  -1.278 -26.563  0.00  0.00     0.179 C 
ATOM     72  O5E 3L9 A   1      -5.278  -0.443 -26.437  0.00  0.00    -0.348 OA
BRANCH  68  73
ATOM     73  O2E 3L9 A   1      -4.835   2.079 -28.920  0.00  0.00    -0.388 OA
ATOM     74  H15 3L9 A   1      -5.485   2.701 -28.585  0.00  0.00     0.210 HD
ENDBRANCH  68  73
BRANCH  69  75
ATOM     75  O3E 3L9 A   1      -2.258   1.251 -28.505  0.00  0.00    -0.390 OA
ATOM     76  H25 3L9 A   1      -2.274   1.447 -29.445  0.00  0.00     0.210 HD
ENDBRANCH  69  75
BRANCH  70  77
ATOM     77  O4E 3L9 A   1      -1.955  -1.306 -27.178  0.00  0.00    -0.390 OA
ATOM     78  H35 3L9 A   1      -1.416  -1.426 -26.392  0.00  0.00     0.210 HD
ENDBRANCH  70  77
BRANCH  71  79
ATOM     79  C6E 3L9 A   1      -4.027  -2.104 -25.307  0.00  0.00     0.198 C 
BRANCH  79  80
ATOM     80  O6E 3L9 A   1      -3.000  -1.608 -24.505  0.00  0.00    -0.398 OA
ATOM     81  H56 3L9 A   1      -2.395  -1.093 -25.042  0.00  0.00     0.209 HD
ENDBRANCH  79  80
ENDBRANCH  71  79
ENDBRANCH  66  67
ENDBRANCH  61  66
BRANCH  62  82
ATOM     82  O3D 3L9 A   1      -7.650  -0.007 -24.776  0.00  0.00    -0.390 OA
ATOM     83  H24 3L9 A   1      -6.698   0.095 -24.696  0.00  0.00     0.210 HD
ENDBRANCH  62  82
BRANCH  63  84
ATOM     84  O4D 3L9 A   1      -9.847   1.569 -23.754  0.00  0.00    -0.390 OA
ATOM     85  H34 3L9 A   1     -10.293   2.276 -23.281  0.00  0.00     0.210 HD
ENDBRANCH  63  84
BRANCH  64  86
ATOM     86  C6D 3L9 A   1      -9.667   4.338 -23.960  0.00  0.00     0.213 C 
BRANCH  86  87
ATOM     87  O6D 3L9 A   1     -11.117   4.424 -24.128  0.00  0.00    -0.316 OA
BRANCH  87  88
ATOM     88  C9F 3L9 A   1     -11.822   4.193 -22.998  0.00  0.00     0.282 C 
ATOM     89  O9F 3L9 A   1     -12.351   3.206 -22.693  0.00  0.00    -0.260 OA
BRANCH  88  90
ATOM     90  C8F 3L9 A   1     -11.652   5.378 -22.049  0.00  0.00     0.083 C 
ATOM     91  C7F 3L9 A   1     -11.612   4.986 -20.726  0.00  0.00     0.017 C 
BRANCH  91  92
ATOM     92  C1F 3L9 A   1     -11.492   5.936 -19.546  0.00  0.00    -0.033 A 
ATOM     93  C2F 3L9 A   1     -10.289   6.389 -19.080  0.00  0.00     0.050 A 
ATOM     94  C3F 3L9 A   1     -10.178   7.237 -17.964  0.00  0.00     0.099 A 
ATOM     95  C4F 3L9 A   1     -11.316   7.672 -17.336  0.00  0.00     0.098 A 
ATOM     96  C5F 3L9 A   1     -12.484   7.239 -17.764  0.00  0.00     0.040 A 
ATOM     97  C6F 3L9 A   1     -12.593   6.408 -18.839  0.00  0.00     0.014 A 
BRANCH  94  98
ATOM     98  O3F 3L9 A   1      -8.955   7.607 -17.622  0.00  0.00    -0.358 OA
ATOM     99  H26 3L9 A   1      -9.002   8.239 -16.901  0.00  0.00     0.217 HD
ENDBRANCH  94  98
BRANCH  95 100
ATOM    100  O4F 3L9 A   1     -11.206   8.471 -16.297  0.00  0.00    -0.358 OA
ATOM    101  H36 3L9 A   1     -10.344   8.893 -16.306  0.00  0.00     0.217 HD
ENDBRANCH  95 100
ENDBRANCH  91  92
ENDBRANCH  88  90
ENDBRANCH  87  88
ENDBRANCH  86  87
ENDBRANCH  64  86
ENDBRANCH  59  60
ENDBRANCH   2  59
BRANCH   3 102
ATOM    102  O3C 3L9 A   1      -6.618   6.643 -27.981  0.00  0.00    -0.390 OA
ATOM    103  H23 3L9 A   1      -7.252   6.520 -27.271  0.00  0.00     0.210 HD
ENDBRANCH   3 102
BRANCH   4 104
ATOM    104  O4C 3L9 A   1      -4.288   7.207 -29.364  0.00  0.00    -0.390 OA
ATOM    105  H33 3L9 A   1      -4.879   7.290 -30.116  0.00  0.00     0.210 HD
ENDBRANCH   4 104
TORSDOF 36
                                                                                                                                                                                                                           
ENDMDL
MODEL 2
REMARK VINA RESULT:    -9.174      4.902     12.648
REMARK INTER + INTRA:         -30.158
REMARK INTER:                 -22.689
REMARK INTRA:                  -7.469
REMARK UNBOUND:                -6.772
REMARK WARNING: 32 MAX_TORS EXCEEDED!!!
REMARK  36 active torsions:
REMARK  status: ('A' for Active; 'I' for Inactive)
REMARK    1  A    between atoms: C1A_2  and  O24_82 
REMARK    2  A    between atoms: C1B_3  and  O4A_40 
REMARK    3  A    between atoms: C1C_4  and  O27_84 
REMARK    4  A    between atoms: C1D_5  and  O2C_17 
REMARK    5  A    between atoms: C1E_6  and  O2D_18 
REMARK    6  A    between atoms: C1F_7  and  C7F_66 
REMARK    7  A    between atoms: C2_8  and  O30_86 
REMARK    8  A    between atoms: C2A_9  and  O2A_15 
REMARK    9  A    between atoms: C2B_10  and  O2B_16 
REMARK   10  A    between atoms: C2C_11  and  O2C_17 
REMARK   11  A    between atoms: C2D_12  and  O2D_18 
REMARK   12  A    between atoms: C2E_13  and  O2E_19 
REMARK   13  A    between atoms: C3A_21  and  O3A_27 
REMARK   14  A    between atoms: C3B_22  and  O3B_28 
REMARK   15  A    between atoms: C3C_23  and  O3C_29 
REMARK   16  A    between atoms: C3D_24  and  O3D_30 
REMARK   17  A    between atoms: C3E_25  and  O3E_31 
REMARK   18  A    between atoms: C3F_26  and  O3F_32 
REMARK   19  A    between atoms: C4A_34  and  O4A_40 
REMARK   20  A    between atoms: C4B_35  and  O4B_41 
REMARK   21  A    between atoms: C4C_36  and  O4C_42 
REMARK   22  A    between atoms: C4D_37  and  O4D_43 
REMARK   23  A    between atoms: C4E_38  and  O4E_44 
REMARK   24  A    between atoms: C4F_39  and  O4F_45 
REMARK   25  A    between atoms: C5D_50  and  C6D_61 
REMARK   26  A    between atoms: C5E_51  and  C6E_62 
REMARK   27  A    between atoms: C6_58  and  O29_85 
REMARK   28  A    between atoms: C6D_61  and  O6D_64 
REMARK   29  A    between atoms: C6E_62  and  O6E_65 
REMARK   30  A    between atoms: O6D_64  and  C9F_69 
REMARK   31  A    between atoms: C8F_67  and  C9F_69 
REMARK   32  A    between atoms: C10_71  and  O27_84 
REMARK   33  A    between atoms: C11_72  and  C14_75 
REMARK   34  A    between atoms: C16_77  and  O25_83 
REMARK   35  A    between atoms: C17_78  and  O24_82 
REMARK   36  A    between atoms: C18_79  and  O23_81 
ROOT
ATOM      1  C1C 3L9 A   1      -8.261   5.495 -24.805  0.00  0.00     0.298 C 
ATOM      2  C2C 3L9 A   1      -7.502   4.260 -25.153  0.00  0.00     0.211 C 
ATOM      3  C3C 3L9 A   1      -8.204   3.091 -24.401  0.00  0.00     0.183 C 
ATOM      4  C4C 3L9 A   1      -9.672   2.979 -24.833  0.00  0.00     0.178 C 
ATOM      5  C5C 3L9 A   1     -10.328   4.382 -24.687  0.00  0.00     0.152 C 
ATOM      6  O5C 3L9 A   1      -9.542   5.398 -25.216  0.00  0.00    -0.351 OA
ATOM      7  C6C 3L9 A   1     -11.729   4.484 -25.240  0.00  0.00     0.042 C 
ENDROOT
BRANCH   1   8
ATOM      8  O27 3L9 A   1      -8.210   5.763 -23.426  0.00  0.00    -0.311 OA
BRANCH   8   9
ATOM      9  C10 3L9 A   1      -7.946   7.080 -23.052  0.00  0.00     0.157 C 
ATOM     10  C9  3L9 A   1      -6.575   7.459 -22.772  0.00  0.00     0.223 C 
ATOM     11  C3  3L9 A   1      -6.221   8.535 -21.903  0.00  0.00     0.084 A 
ATOM     12  O13 3L9 A   1      -5.691   6.831 -23.440  0.00  0.00    -0.284 OA
ATOM     13  C2  3L9 A   1      -4.985   8.941 -21.616  0.00  0.00     0.085 A 
ATOM     14  C4  3L9 A   1      -7.296   9.160 -21.225  0.00  0.00     0.096 A 
ATOM     15  C1  3L9 A   1      -4.712   9.941 -20.743  0.00  0.00     0.074 A 
ATOM     16  C6  3L9 A   1      -5.757  10.590 -20.084  0.00  0.00     0.071 A 
ATOM     17  C5  3L9 A   1      -7.056  10.179 -20.315  0.00  0.00     0.075 A 
ATOM     18  O12 3L9 A   1      -8.539   8.781 -21.474  0.00  0.00    -0.306 OA
ATOM     19  C11 3L9 A   1      -8.918   7.640 -22.090  0.00  0.00     0.124 C 
BRANCH  13  20
ATOM     20  O30 3L9 A   1      -3.986   8.371 -22.282  0.00  0.00    -0.360 OA
ATOM     21  H64 3L9 A   1      -3.317   9.029 -22.483  0.00  0.00     0.217 HD
ENDBRANCH  13  20
BRANCH  16  22
ATOM     22  O29 3L9 A   1      -5.494  11.552 -19.268  0.00  0.00    -0.361 OA
ATOM     23  H63 3L9 A   1      -6.314  11.947 -18.963  0.00  0.00     0.217 HD
ENDBRANCH  16  22
BRANCH  19  24
ATOM     24  C14 3L9 A   1     -10.337   7.340 -22.220  0.00  0.00     0.006 A 
ATOM     25  C15 3L9 A   1     -11.180   7.755 -23.211  0.00  0.00     0.054 A 
ATOM     26  C16 3L9 A   1     -12.557   7.423 -23.274  0.00  0.00     0.102 A 
ATOM     27  C17 3L9 A   1     -13.152   6.607 -22.310  0.00  0.00     0.138 A 
ATOM     28  C18 3L9 A   1     -12.267   6.163 -21.297  0.00  0.00     0.102 A 
ATOM     29  C19 3L9 A   1     -10.944   6.533 -21.273  0.00  0.00     0.054 A 
BRANCH  26  30
ATOM     30  O25 3L9 A   1     -13.239   7.902 -24.258  0.00  0.00    -0.358 OA
ATOM     31  H62 3L9 A   1     -12.865   8.745 -24.526  0.00  0.00     0.217 HD
ENDBRANCH  26  30
BRANCH  27  32
ATOM     32  O24 3L9 A   1     -14.356   6.300 -22.326  0.00  0.00    -0.312 OA
BRANCH  32  33
ATOM     33  C1A 3L9 A   1     -14.646   4.961 -22.373  0.00  0.00     0.297 C 
ATOM     34  C2A 3L9 A   1     -16.001   4.762 -21.668  0.00  0.00     0.205 C 
ATOM     35  C3A 3L9 A   1     -16.415   3.329 -21.773  0.00  0.00     0.182 C 
ATOM     36  C4A 3L9 A   1     -16.435   2.885 -23.261  0.00  0.00     0.180 C 
ATOM     37  C5A 3L9 A   1     -15.096   3.195 -23.858  0.00  0.00     0.205 C 
ATOM     38  O5A 3L9 A   1     -14.745   4.557 -23.693  0.00  0.00    -0.356 OA
BRANCH  34  39
ATOM     39  O2A 3L9 A   1     -15.805   5.007 -20.358  0.00  0.00    -0.388 OA
ATOM     40  H13 3L9 A   1     -15.229   4.333 -19.989  0.00  0.00     0.210 HD
ENDBRANCH  34  39
BRANCH  35  41
ATOM     41  O3A 3L9 A   1     -17.718   3.225 -21.366  0.00  0.00    -0.390 OA
ATOM     42  H21 3L9 A   1     -17.759   2.721 -20.549  0.00  0.00     0.210 HD
ENDBRANCH  35  41
BRANCH  36  43
ATOM     43  O4A 3L9 A   1     -16.677   1.563 -23.436  0.00  0.00    -0.348 OA
BRANCH  43  44
ATOM     44  C1B 3L9 A   1     -17.713   1.030 -24.212  0.00  0.00     0.292 C 
ATOM     45  C2B 3L9 A   1     -17.235  -0.334 -24.733  0.00  0.00     0.204 C 
ATOM     46  C3B 3L9 A   1     -17.053  -1.275 -23.546  0.00  0.00     0.183 C 
ATOM     47  C4B 3L9 A   1     -18.340  -1.297 -22.680  0.00  0.00     0.178 C 
ATOM     48  C5B 3L9 A   1     -18.833   0.143 -22.429  0.00  0.00     0.152 C 
ATOM     49  C6B 3L9 A   1     -20.238   0.215 -21.858  0.00  0.00     0.042 C 
ATOM     50  O5B 3L9 A   1     -18.759   0.941 -23.578  0.00  0.00    -0.351 OA
BRANCH  45  51
ATOM     51  O2B 3L9 A   1     -18.082  -0.794 -25.603  0.00  0.00    -0.388 OA
ATOM     52  H14 3L9 A   1     -17.606  -1.155 -26.354  0.00  0.00     0.210 HD
ENDBRANCH  45  51
BRANCH  46  53
ATOM     53  O3B 3L9 A   1     -16.716  -2.514 -24.034  0.00  0.00    -0.390 OA
ATOM     54  H22 3L9 A   1     -17.507  -3.051 -24.120  0.00  0.00     0.210 HD
ENDBRANCH  46  53
BRANCH  47  55
ATOM     55  O4B 3L9 A   1     -18.140  -1.867 -21.507  0.00  0.00    -0.390 OA
ATOM     56  H32 3L9 A   1     -17.916  -2.792 -21.634  0.00  0.00     0.210 HD
ENDBRANCH  47  55
ENDBRANCH  43  44
ENDBRANCH  36  43
ENDBRANCH  32  33
ENDBRANCH  27  32
BRANCH  28  57
ATOM     57  O23 3L9 A   1     -12.815   5.430 -20.366  0.00  0.00    -0.358 OA
ATOM     58  H61 3L9 A   1     -13.751   5.636 -20.305  0.00  0.00     0.217 HD
ENDBRANCH  28  57
ENDBRANCH  19  24
ENDBRANCH   8   9
ENDBRANCH   1   8
BRANCH   2  59
ATOM     59  O2C 3L9 A   1      -7.285   4.181 -26.507  0.00  0.00    -0.346 OA
BRANCH  59  60
ATOM     60  C1D 3L9 A   1      -6.065   4.235 -27.019  0.00  0.00     0.292 C 
ATOM     61  C2D 3L9 A   1      -5.863   5.044 -28.336  0.00  0.00     0.211 C 
ATOM     62  C3D 3L9 A   1      -4.325   5.035 -28.766  0.00  0.00     0.183 C 
ATOM     63  C4D 3L9 A   1      -3.364   5.308 -27.597  0.00  0.00     0.180 C 
ATOM     64  C5D 3L9 A   1      -3.636   4.300 -26.488  0.00  0.00     0.180 C 
ATOM     65  O5D 3L9 A   1      -5.005   4.306 -26.107  0.00  0.00    -0.348 OA
BRANCH  61  66
ATOM     66  O2D 3L9 A   1      -6.621   4.501 -29.345  0.00  0.00    -0.346 OA
BRANCH  66  67
ATOM     67  C1E 3L9 A   1      -7.529   5.171 -30.006  0.00  0.00     0.292 C 
ATOM     68  C2E 3L9 A   1      -7.264   5.059 -31.506  0.00  0.00     0.204 C 
ATOM     69  C3E 3L9 A   1      -8.342   5.842 -32.245  0.00  0.00     0.183 C 
ATOM     70  C4E 3L9 A   1      -9.743   5.224 -31.890  0.00  0.00     0.180 C 
ATOM     71  C5E 3L9 A   1      -9.874   5.226 -30.395  0.00  0.00     0.179 C 
ATOM     72  O5E 3L9 A   1      -8.788   4.569 -29.796  0.00  0.00    -0.348 OA
BRANCH  68  73
ATOM     73  O2E 3L9 A   1      -5.978   5.383 -31.839  0.00  0.00    -0.388 OA
ATOM     74  H15 3L9 A   1      -5.447   5.444 -31.042  0.00  0.00     0.210 HD
ENDBRANCH  68  73
BRANCH  69  75
ATOM     75  O3E 3L9 A   1      -8.054   5.724 -33.591  0.00  0.00    -0.390 OA
ATOM     76  H25 3L9 A   1      -8.108   4.801 -33.850  0.00  0.00     0.210 HD
ENDBRANCH  69  75
BRANCH  70  77
ATOM     77  O4E 3L9 A   1     -10.682   5.978 -32.398  0.00  0.00    -0.390 OA
ATOM     78  H35 3L9 A   1     -11.377   5.424 -32.760  0.00  0.00     0.210 HD
ENDBRANCH  70  77
BRANCH  71  79
ATOM     79  C6E 3L9 A   1     -11.153   4.613 -29.879  0.00  0.00     0.198 C 
BRANCH  79  80
ATOM     80  O6E 3L9 A   1     -12.133   5.593 -29.727  0.00  0.00    -0.398 OA
ATOM     81  H56 3L9 A   1     -12.429   5.886 -30.592  0.00  0.00     0.209 HD
ENDBRANCH  79  80
ENDBRANCH  71  79
ENDBRANCH  66  67
ENDBRANCH  61  66
BRANCH  62  82
ATOM     82  O3D 3L9 A   1      -4.234   6.127 -29.626  0.00  0.00    -0.390 OA
ATOM     83  H24 3L9 A   1      -5.113   6.376 -29.923  0.00  0.00     0.210 HD
ENDBRANCH  62  82
BRANCH  63  84
ATOM     84  O4D 3L9 A   1      -2.048   5.150 -28.007  0.00  0.00    -0.390 OA
ATOM     85  H34 3L9 A   1      -1.760   4.253 -27.821  0.00  0.00     0.210 HD
ENDBRANCH  63  84
BRANCH  64  86
ATOM     86  C6D 3L9 A   1      -2.601   4.414 -25.382  0.00  0.00     0.213 C 
BRANCH  86  87
ATOM     87  O6D 3L9 A   1      -3.121   4.034 -24.070  0.00  0.00    -0.316 OA
BRANCH  87  88
ATOM     88  C9F 3L9 A   1      -2.229   4.157 -23.062  0.00  0.00     0.282 C 
ATOM     89  O9F 3L9 A   1      -1.172   3.680 -23.001  0.00  0.00    -0.260 OA
BRANCH  88  90
ATOM     90  C8F 3L9 A   1      -2.731   5.208 -22.073  0.00  0.00     0.083 C 
ATOM     91  C7F 3L9 A   1      -3.785   4.747 -21.310  0.00  0.00     0.017 C 
BRANCH  91  92
ATOM     92  C1F 3L9 A   1      -4.523   5.570 -20.268  0.00  0.00    -0.033 A 
ATOM     93  C2F 3L9 A   1      -5.887   5.621 -20.195  0.00  0.00     0.050 A 
ATOM     94  C3F 3L9 A   1      -6.568   6.414 -19.256  0.00  0.00     0.099 A 
ATOM     95  C4F 3L9 A   1      -5.848   7.136 -18.340  0.00  0.00     0.098 A 
ATOM     96  C5F 3L9 A   1      -4.533   7.109 -18.401  0.00  0.00     0.040 A 
ATOM     97  C6F 3L9 A   1      -3.871   6.348 -19.318  0.00  0.00     0.014 A 
BRANCH  94  98
ATOM     98  O3F 3L9 A   1      -7.890   6.366 -19.288  0.00  0.00    -0.358 OA
ATOM     99  H26 3L9 A   1      -8.247   7.237 -19.098  0.00  0.00     0.217 HD
ENDBRANCH  94  98
BRANCH  95 100
ATOM    100  O4F 3L9 A   1      -6.491   7.871 -17.458  0.00  0.00    -0.358 OA
ATOM    101  H36 3L9 A   1      -6.564   7.389 -16.631  0.00  0.00     0.217 HD
ENDBRANCH  95 100
ENDBRANCH  91  92
ENDBRANCH  88  90
ENDBRANCH  87  88
ENDBRANCH  86  87
ENDBRANCH  64  86
ENDBRANCH  59  60
ENDBRANCH   2  59
BRANCH   3 102
ATOM    102  O3C 3L9 A   1      -7.528   1.966 -24.563  0.00  0.00    -0.390 OA
ATOM    103  H23 3L9 A   1      -6.622   2.092 -24.273  0.00  0.00     0.210 HD
ENDBRANCH   3 102
BRANCH   4 104
ATOM    104  O4C 3L9 A   1     -10.239   2.015 -24.009  0.00  0.00    -0.390 OA
ATOM    105  H33 3L9 A   1     -10.852   2.433 -23.400  0.00  0.00     0.210 HD
ENDBRANCH   4 104
TORSDOF 36
                                                                                                                                                                                                                           
ENDMDL
MODEL 3
REMARK VINA RESULT:    -9.081      4.827      8.236
REMARK INTER + INTRA:         -29.920
REMARK INTER:                 -20.512
REMARK INTRA:                  -9.408
REMARK UNBOUND:                -6.772
REMARK WARNING: 32 MAX_TORS EXCEEDED!!!
REMARK  36 active torsions:
REMARK  status: ('A' for Active; 'I' for Inactive)
REMARK    1  A    between atoms: C1A_2  and  O24_82 
REMARK    2  A    between atoms: C1B_3  and  O4A_40 
REMARK    3  A    between atoms: C1C_4  and  O27_84 
REMARK    4  A    between atoms: C1D_5  and  O2C_17 
REMARK    5  A    between atoms: C1E_6  and  O2D_18 
REMARK    6  A    between atoms: C1F_7  and  C7F_66 
REMARK    7  A    between atoms: C2_8  and  O30_86 
REMARK    8  A    between atoms: C2A_9  and  O2A_15 
REMARK    9  A    between atoms: C2B_10  and  O2B_16 
REMARK   10  A    between atoms: C2C_11  and  O2C_17 
REMARK   11  A    between atoms: C2D_12  and  O2D_18 
REMARK   12  A    between atoms: C2E_13  and  O2E_19 
REMARK   13  A    between atoms: C3A_21  and  O3A_27 
REMARK   14  A    between atoms: C3B_22  and  O3B_28 
REMARK   15  A    between atoms: C3C_23  and  O3C_29 
REMARK   16  A    between atoms: C3D_24  and  O3D_30 
REMARK   17  A    between atoms: C3E_25  and  O3E_31 
REMARK   18  A    between atoms: C3F_26  and  O3F_32 
REMARK   19  A    between atoms: C4A_34  and  O4A_40 
REMARK   20  A    between atoms: C4B_35  and  O4B_41 
REMARK   21  A    between atoms: C4C_36  and  O4C_42 
REMARK   22  A    between atoms: C4D_37  and  O4D_43 
REMARK   23  A    between atoms: C4E_38  and  O4E_44 
REMARK   24  A    between atoms: C4F_39  and  O4F_45 
REMARK   25  A    between atoms: C5D_50  and  C6D_61 
REMARK   26  A    between atoms: C5E_51  and  C6E_62 
REMARK   27  A    between atoms: C6_58  and  O29_85 
REMARK   28  A    between atoms: C6D_61  and  O6D_64 
REMARK   29  A    between atoms: C6E_62  and  O6E_65 
REMARK   30  A    between atoms: O6D_64  and  C9F_69 
REMARK   31  A    between atoms: C8F_67  and  C9F_69 
REMARK   32  A    between atoms: C10_71  and  O27_84 
REMARK   33  A    between atoms: C11_72  and  C14_75 
REMARK   34  A    between atoms: C16_77  and  O25_83 
REMARK   35  A    between atoms: C17_78  and  O24_82 
REMARK   36  A    between atoms: C18_79  and  O23_81 
ROOT
ATOM      1  C1C 3L9 A   1      -9.721   5.765 -24.301  0.00  0.00     0.298 C 
ATOM      2  C2C 3L9 A   1      -9.427   5.201 -25.650  0.00  0.00     0.211 C 
ATOM      3  C3C 3L9 A   1     -10.722   4.468 -26.108  0.00  0.00     0.183 C 
ATOM      4  C4C 3L9 A   1     -11.903   5.447 -26.162  0.00  0.00     0.178 C 
ATOM      5  C5C 3L9 A   1     -11.980   6.189 -24.798  0.00  0.00     0.152 C 
ATOM      6  O5C 3L9 A   1     -10.741   6.646 -24.366  0.00  0.00    -0.351 OA
ATOM      7  C6C 3L9 A   1     -12.982   7.317 -24.748  0.00  0.00     0.042 C 
ENDROOT
BRANCH   1   8
ATOM      8  O27 3L9 A   1     -10.009   4.753 -23.369  0.00  0.00    -0.311 OA
BRANCH   8   9
ATOM      9  C10 3L9 A   1      -9.262   4.754 -22.192  0.00  0.00     0.157 C 
ATOM     10  C9  3L9 A   1      -9.622   5.688 -21.143  0.00  0.00     0.223 C 
ATOM     11  C3  3L9 A   1      -8.694   6.174 -20.174  0.00  0.00     0.084 A 
ATOM     12  O13 3L9 A   1     -10.862   5.973 -21.073  0.00  0.00    -0.284 OA
ATOM     13  C2  3L9 A   1      -8.965   7.019 -19.180  0.00  0.00     0.085 A 
ATOM     14  C4  3L9 A   1      -7.347   5.777 -20.356  0.00  0.00     0.096 A 
ATOM     15  C1  3L9 A   1      -8.026   7.483 -18.319  0.00  0.00     0.074 A 
ATOM     16  C6  3L9 A   1      -6.696   7.083 -18.462  0.00  0.00     0.071 A 
ATOM     17  C5  3L9 A   1      -6.356   6.240 -19.502  0.00  0.00     0.075 A 
ATOM     18  O12 3L9 A   1      -7.034   4.946 -21.336  0.00  0.00    -0.306 OA
ATOM     19  C11 3L9 A   1      -7.804   4.644 -22.404  0.00  0.00     0.124 C 
BRANCH  13  20
ATOM     20  O30 3L9 A   1     -10.236   7.360 -18.998  0.00  0.00    -0.360 OA
ATOM     21  H64 3L9 A   1     -10.430   7.385 -18.058  0.00  0.00     0.217 HD
ENDBRANCH  13  20
BRANCH  16  22
ATOM     22  O29 3L9 A   1      -5.811   7.512 -17.630  0.00  0.00    -0.361 OA
ATOM     23  H63 3L9 A   1      -6.116   7.364 -16.731  0.00  0.00     0.217 HD
ENDBRANCH  16  22
BRANCH  19  24
ATOM     24  C14 3L9 A   1      -7.276   3.761 -23.435  0.00  0.00     0.006 A 
ATOM     25  C15 3L9 A   1      -7.933   2.742 -24.062  0.00  0.00     0.054 A 
ATOM     26  C16 3L9 A   1      -7.353   1.918 -25.061  0.00  0.00     0.102 A 
ATOM     27  C17 3L9 A   1      -6.041   2.117 -25.495  0.00  0.00     0.138 A 
ATOM     28  C18 3L9 A   1      -5.373   3.189 -24.854  0.00  0.00     0.102 A 
ATOM     29  C19 3L9 A   1      -5.977   3.943 -23.876  0.00  0.00     0.054 A 
BRANCH  26  30
ATOM     30  O25 3L9 A   1      -8.086   0.979 -25.555  0.00  0.00    -0.358 OA
ATOM     31  H62 3L9 A   1      -7.653   0.132 -25.424  0.00  0.00     0.217 HD
ENDBRANCH  26  30
BRANCH  27  32
ATOM     32  O24 3L9 A   1      -5.496   1.412 -26.361  0.00  0.00    -0.312 OA
BRANCH  32  33
ATOM     33  C1A 3L9 A   1      -4.929   2.074 -27.419  0.00  0.00     0.297 C 
ATOM     34  C2A 3L9 A   1      -3.720   1.240 -27.884  0.00  0.00     0.205 C 
ATOM     35  C3A 3L9 A   1      -3.117   1.866 -29.101  0.00  0.00     0.182 C 
ATOM     36  C4A 3L9 A   1      -4.196   2.036 -30.205  0.00  0.00     0.180 C 
ATOM     37  C5A 3L9 A   1      -5.348   2.791 -29.619  0.00  0.00     0.205 C 
ATOM     38  O5A 3L9 A   1      -5.849   2.170 -28.449  0.00  0.00    -0.356 OA
BRANCH  34  39
ATOM     39  O2A 3L9 A   1      -2.788   1.321 -26.913  0.00  0.00    -0.388 OA
ATOM     40  H13 3L9 A   1      -1.927   1.102 -27.277  0.00  0.00     0.210 HD
ENDBRANCH  34  39
BRANCH  35  41
ATOM     41  O3A 3L9 A   1      -2.212   0.988 -29.635  0.00  0.00    -0.390 OA
ATOM     42  H21 3L9 A   1      -1.324   1.253 -29.387  0.00  0.00     0.210 HD
ENDBRANCH  35  41
BRANCH  36  43
ATOM     43  O4A 3L9 A   1      -3.761   2.712 -31.297  0.00  0.00    -0.348 OA
BRANCH  43  44
ATOM     44  C1B 3L9 A   1      -3.548   4.094 -31.356  0.00  0.00     0.292 C 
ATOM     45  C2B 3L9 A   1      -2.074   4.311 -31.727  0.00  0.00     0.204 C 
ATOM     46  C3B 3L9 A   1      -1.840   3.775 -33.136  0.00  0.00     0.183 C 
ATOM     47  C4B 3L9 A   1      -2.878   4.380 -34.117  0.00  0.00     0.178 C 
ATOM     48  C5B 3L9 A   1      -4.293   4.296 -33.507  0.00  0.00     0.152 C 
ATOM     49  C6B 3L9 A   1      -5.325   5.129 -34.247  0.00  0.00     0.042 C 
ATOM     50  O5B 3L9 A   1      -4.309   4.640 -32.148  0.00  0.00    -0.351 OA
BRANCH  45  51
ATOM     51  O2B 3L9 A   1      -1.775   5.570 -31.622  0.00  0.00    -0.388 OA
ATOM     52  H14 3L9 A   1      -2.569   6.098 -31.733  0.00  0.00     0.210 HD
ENDBRANCH  45  51
BRANCH  46  53
ATOM     53  O3B 3L9 A   1      -0.543   4.059 -33.489  0.00  0.00    -0.390 OA
ATOM     54  H22 3L9 A   1      -0.075   4.417 -32.730  0.00  0.00     0.210 HD
ENDBRANCH  46  53
BRANCH  47  55
ATOM     55  O4B 3L9 A   1      -2.898   3.744 -35.273  0.00  0.00    -0.390 OA
ATOM     56  H32 3L9 A   1      -2.316   4.189 -35.894  0.00  0.00     0.210 HD
ENDBRANCH  47  55
ENDBRANCH  43  44
ENDBRANCH  36  43
ENDBRANCH  32  33
ENDBRANCH  27  32
BRANCH  28  57
ATOM     57  O23 3L9 A   1      -4.132   3.365 -25.219  0.00  0.00    -0.358 OA
ATOM     58  H61 3L9 A   1      -3.662   3.847 -24.535  0.00  0.00     0.217 HD
ENDBRANCH  28  57
ENDBRANCH  19  24
ENDBRANCH   8   9
ENDBRANCH   1   8
BRANCH   2  59
ATOM     59  O2C 3L9 A   1      -8.842   6.144 -26.460  0.00  0.00    -0.346 OA
BRANCH  59  60
ATOM     60  C1D 3L9 A   1      -7.616   5.986 -26.935  0.00  0.00     0.292 C 
ATOM     61  C2D 3L9 A   1      -7.420   6.054 -28.480  0.00  0.00     0.211 C 
ATOM     62  C3D 3L9 A   1      -5.876   5.894 -28.854  0.00  0.00     0.183 C 
ATOM     63  C4D 3L9 A   1      -4.944   6.740 -27.971  0.00  0.00     0.180 C 
ATOM     64  C5D 3L9 A   1      -5.200   6.396 -26.510  0.00  0.00     0.180 C 
ATOM     65  O5D 3L9 A   1      -6.574   6.536 -26.178  0.00  0.00    -0.348 OA
BRANCH  61  66
ATOM     66  O2D 3L9 A   1      -8.142   5.058 -29.092  0.00  0.00    -0.346 OA
BRANCH  66  67
ATOM     67  C1E 3L9 A   1      -8.952   5.267 -30.098  0.00  0.00     0.292 C 
ATOM     68  C2E 3L9 A   1      -8.644   4.280 -31.222  0.00  0.00     0.204 C 
ATOM     69  C3E 3L9 A   1      -9.608   4.545 -32.372  0.00  0.00     0.183 C 
ATOM     70  C4E 3L9 A   1     -11.077   4.341 -31.852  0.00  0.00     0.180 C 
ATOM     71  C5E 3L9 A   1     -11.263   5.228 -30.656  0.00  0.00     0.179 C 
ATOM     72  O5E 3L9 A   1     -10.272   4.982 -29.692  0.00  0.00    -0.348 OA
BRANCH  68  73
ATOM     73  O2E 3L9 A   1      -7.321   4.267 -31.563  0.00  0.00    -0.388 OA
ATOM     74  H15 3L9 A   1      -7.116   3.448 -32.020  0.00  0.00     0.210 HD
ENDBRANCH  68  73
BRANCH  69  75
ATOM     75  O3E 3L9 A   1      -9.285   3.642 -33.366  0.00  0.00    -0.390 OA
ATOM     76  H25 3L9 A   1      -9.385   2.748 -33.032  0.00  0.00     0.210 HD
ENDBRANCH  69  75
BRANCH  70  77
ATOM     77  O4E 3L9 A   1     -11.914   4.709 -32.785  0.00  0.00    -0.390 OA
ATOM     78  H35 3L9 A   1     -11.747   5.624 -33.023  0.00  0.00     0.210 HD
ENDBRANCH  70  77
BRANCH  71  79
ATOM     79  C6E 3L9 A   1     -12.615   5.115 -29.997  0.00  0.00     0.198 C 
BRANCH  79  80
ATOM     80  O6E 3L9 A   1     -12.701   3.931 -29.265  0.00  0.00    -0.398 OA
ATOM     81  H56 3L9 A   1     -12.107   3.278 -29.642  0.00  0.00     0.209 HD
ENDBRANCH  79  80
ENDBRANCH  71  79
ENDBRANCH  66  67
ENDBRANCH  61  66
BRANCH  62  82
ATOM     82  O3D 3L9 A   1      -5.808   6.427 -30.140  0.00  0.00    -0.390 OA
ATOM     83  H24 3L9 A   1      -5.078   6.025 -30.616  0.00  0.00     0.210 HD
ENDBRANCH  62  82
BRANCH  63  84
ATOM     84  O4D 3L9 A   1      -3.617   6.452 -28.255  0.00  0.00    -0.390 OA
ATOM     85  H34 3L9 A   1      -3.050   7.090 -27.815  0.00  0.00     0.210 HD
ENDBRANCH  63  84
BRANCH  64  86
ATOM     86  C6D 3L9 A   1      -4.187   7.076 -25.605  0.00  0.00     0.213 C 
BRANCH  86  87
ATOM     87  O6D 3L9 A   1      -3.157   6.164 -25.111  0.00  0.00    -0.316 OA
BRANCH  87  88
ATOM     88  C9F 3L9 A   1      -3.132   6.030 -23.767  0.00  0.00     0.282 C 
ATOM     89  O9F 3L9 A   1      -2.794   5.097 -23.164  0.00  0.00    -0.260 OA
BRANCH  88  90
ATOM     90  C8F 3L9 A   1      -3.420   7.384 -23.121  0.00  0.00     0.083 C 
ATOM     91  C7F 3L9 A   1      -4.539   7.350 -22.314  0.00  0.00     0.017 C 
BRANCH  91  92
ATOM     92  C1F 3L9 A   1      -5.103   8.548 -21.567  0.00  0.00    -0.033 A 
ATOM     93  C2F 3L9 A   1      -6.423   8.899 -21.620  0.00  0.00     0.050 A 
ATOM     94  C3F 3L9 A   1      -6.935  10.030 -20.961  0.00  0.00     0.099 A 
ATOM     95  C4F 3L9 A   1      -6.097  10.795 -20.192  0.00  0.00     0.098 A 
ATOM     96  C5F 3L9 A   1      -4.820  10.478 -20.136  0.00  0.00     0.040 A 
ATOM     97  C6F 3L9 A   1      -4.319   9.388 -20.784  0.00  0.00     0.014 A 
BRANCH  94  98
ATOM     98  O3F 3L9 A   1      -8.233  10.251 -21.089  0.00  0.00    -0.358 OA
ATOM     99  H26 3L9 A   1      -8.465  10.265 -22.020  0.00  0.00     0.217 HD
ENDBRANCH  94  98
BRANCH  95 100
ATOM    100  O4F 3L9 A   1      -6.583  11.847 -19.571  0.00  0.00    -0.358 OA
ATOM    101  H36 3L9 A   1      -5.905  12.523 -19.506  0.00  0.00     0.217 HD
ENDBRANCH  95 100
ENDBRANCH  91  92
ENDBRANCH  88  90
ENDBRANCH  87  88
ENDBRANCH  86  87
ENDBRANCH  64  86
ENDBRANCH  59  60
ENDBRANCH   2  59
BRANCH   3 102
ATOM    102  O3C 3L9 A   1     -10.516   3.839 -27.253  0.00  0.00    -0.390 OA
ATOM    103  H23 3L9 A   1      -9.667   4.104 -27.616  0.00  0.00     0.210 HD
ENDBRANCH   3 102
BRANCH   4 104
ATOM    104  O4C 3L9 A   1     -13.025   4.675 -26.436  0.00  0.00    -0.390 OA
ATOM    105  H33 3L9 A   1     -13.604   4.667 -25.670  0.00  0.00     0.210 HD
ENDBRANCH   4 104
TORSDOF 36
                                                                                                                                                                                                                           
ENDMDL
MODEL 4
REMARK VINA RESULT:    -9.013      2.098      3.761
REMARK INTER + INTRA:         -29.748
REMARK INTER:                 -22.193
REMARK INTRA:                  -7.555
REMARK UNBOUND:                -6.772
REMARK WARNING: 32 MAX_TORS EXCEEDED!!!
REMARK  36 active torsions:
REMARK  status: ('A' for Active; 'I' for Inactive)
REMARK    1  A    between atoms: C1A_2  and  O24_82 
REMARK    2  A    between atoms: C1B_3  and  O4A_40 
REMARK    3  A    between atoms: C1C_4  and  O27_84 
REMARK    4  A    between atoms: C1D_5  and  O2C_17 
REMARK    5  A    between atoms: C1E_6  and  O2D_18 
REMARK    6  A    between atoms: C1F_7  and  C7F_66 
REMARK    7  A    between atoms: C2_8  and  O30_86 
REMARK    8  A    between atoms: C2A_9  and  O2A_15 
REMARK    9  A    between atoms: C2B_10  and  O2B_16 
REMARK   10  A    between atoms: C2C_11  and  O2C_17 
REMARK   11  A    between atoms: C2D_12  and  O2D_18 
REMARK   12  A    between atoms: C2E_13  and  O2E_19 
REMARK   13  A    between atoms: C3A_21  and  O3A_27 
REMARK   14  A    between atoms: C3B_22  and  O3B_28 
REMARK   15  A    between atoms: C3C_23  and  O3C_29 
REMARK   16  A    between atoms: C3D_24  and  O3D_30 
REMARK   17  A    between atoms: C3E_25  and  O3E_31 
REMARK   18  A    between atoms: C3F_26  and  O3F_32 
REMARK   19  A    between atoms: C4A_34  and  O4A_40 
REMARK   20  A    between atoms: C4B_35  and  O4B_41 
REMARK   21  A    between atoms: C4C_36  and  O4C_42 
REMARK   22  A    between atoms: C4D_37  and  O4D_43 
REMARK   23  A    between atoms: C4E_38  and  O4E_44 
REMARK   24  A    between atoms: C4F_39  and  O4F_45 
REMARK   25  A    between atoms: C5D_50  and  C6D_61 
REMARK   26  A    between atoms: C5E_51  and  C6E_62 
REMARK   27  A    between atoms: C6_58  and  O29_85 
REMARK   28  A    between atoms: C6D_61  and  O6D_64 
REMARK   29  A    between atoms: C6E_62  and  O6E_65 
REMARK   30  A    between atoms: O6D_64  and  C9F_69 
REMARK   31  A    between atoms: C8F_67  and  C9F_69 
REMARK   32  A    between atoms: C10_71  and  O27_84 
REMARK   33  A    between atoms: C11_72  and  C14_75 
REMARK   34  A    between atoms: C16_77  and  O25_83 
REMARK   35  A    between atoms: C17_78  and  O24_82 
REMARK   36  A    between atoms: C18_79  and  O23_81 
ROOT
ATOM      1  C1C 3L9 A   1      -6.220   2.416 -25.235  0.00  0.00     0.298 C 
ATOM      2  C2C 3L9 A   1      -7.572   2.420 -25.862  0.00  0.00     0.211 C 
ATOM      3  C3C 3L9 A   1      -7.345   2.632 -27.388  0.00  0.00     0.183 C 
ATOM      4  C4C 3L9 A   1      -6.471   1.509 -27.962  0.00  0.00     0.178 C 
ATOM      5  C5C 3L9 A   1      -5.192   1.395 -27.086  0.00  0.00     0.152 C 
ATOM      6  O5C 3L9 A   1      -5.471   1.407 -25.725  0.00  0.00    -0.351 OA
ATOM      7  C6C 3L9 A   1      -4.306   0.216 -27.412  0.00  0.00     0.042 C 
ENDROOT
BRANCH   1   8
ATOM      8  O27 3L9 A   1      -5.561   3.645 -25.417  0.00  0.00    -0.311 OA
BRANCH   8   9
ATOM      9  C10 3L9 A   1      -5.210   4.345 -24.264  0.00  0.00     0.157 C 
ATOM     10  C9  3L9 A   1      -5.955   5.541 -23.925  0.00  0.00     0.223 C 
ATOM     11  C3  3L9 A   1      -5.413   6.608 -23.147  0.00  0.00     0.084 A 
ATOM     12  O13 3L9 A   1      -7.178   5.538 -24.282  0.00  0.00    -0.284 OA
ATOM     13  C2  3L9 A   1      -6.049   7.724 -22.791  0.00  0.00     0.085 A 
ATOM     14  C4  3L9 A   1      -4.044   6.490 -22.806  0.00  0.00     0.096 A 
ATOM     15  C1  3L9 A   1      -5.462   8.725 -22.090  0.00  0.00     0.074 A 
ATOM     16  C6  3L9 A   1      -4.121   8.618 -21.718  0.00  0.00     0.071 A 
ATOM     17  C5  3L9 A   1      -3.405   7.498 -22.099  0.00  0.00     0.075 A 
ATOM     18  O12 3L9 A   1      -3.373   5.403 -23.148  0.00  0.00    -0.306 OA
ATOM     19  C11 3L9 A   1      -3.752   4.486 -24.065  0.00  0.00     0.124 C 
BRANCH  13  20
ATOM     20  O30 3L9 A   1      -7.341   7.811 -23.088  0.00  0.00    -0.360 OA
ATOM     21  H64 3L9 A   1      -7.763   8.442 -22.500  0.00  0.00     0.217 HD
ENDBRANCH  13  20
BRANCH  16  22
ATOM     22  O29 3L9 A   1      -3.573   9.564 -21.036  0.00  0.00    -0.361 OA
ATOM     23  H63 3L9 A   1      -3.430   9.268 -20.134  0.00  0.00     0.217 HD
ENDBRANCH  16  22
BRANCH  19  24
ATOM     24  C14 3L9 A   1      -2.858   3.379 -24.376  0.00  0.00     0.006 A 
ATOM     25  C15 3L9 A   1      -2.170   3.177 -25.538  0.00  0.00     0.054 A 
ATOM     26  C16 3L9 A   1      -1.314   2.071 -25.773  0.00  0.00     0.102 A 
ATOM     27  C17 3L9 A   1      -1.095   1.101 -24.793  0.00  0.00     0.138 A 
ATOM     28  C18 3L9 A   1      -1.797   1.328 -23.583  0.00  0.00     0.102 A 
ATOM     29  C19 3L9 A   1      -2.631   2.408 -23.418  0.00  0.00     0.054 A 
BRANCH  26  30
ATOM     30  O25 3L9 A   1      -0.741   1.998 -26.926  0.00  0.00    -0.358 OA
ATOM     31  H62 3L9 A   1      -0.408   1.108 -27.062  0.00  0.00     0.217 HD
ENDBRANCH  26  30
BRANCH  27  32
ATOM     32  O24 3L9 A   1      -0.359   0.114 -24.963  0.00  0.00    -0.312 OA
BRANCH  32  33
ATOM     33  C1A 3L9 A   1       0.934   0.234 -24.525  0.00  0.00     0.297 C 
ATOM     34  C2A 3L9 A   1       1.383  -1.159 -24.043  0.00  0.00     0.205 C 
ATOM     35  C3A 3L9 A   1       2.823  -1.110 -23.642  0.00  0.00     0.182 C 
ATOM     36  C4A 3L9 A   1       3.687  -0.566 -24.813  0.00  0.00     0.180 C 
ATOM     37  C5A 3L9 A   1       3.113   0.748 -25.244  0.00  0.00     0.205 C 
ATOM     38  O5A 3L9 A   1       1.739   0.644 -25.573  0.00  0.00    -0.356 OA
BRANCH  34  39
ATOM     39  O2A 3L9 A   1       0.685  -1.434 -22.924  0.00  0.00    -0.388 OA
ATOM     40  H13 3L9 A   1       1.115  -2.147 -22.445  0.00  0.00     0.210 HD
ENDBRANCH  34  39
BRANCH  35  41
ATOM     41  O3A 3L9 A   1       3.263  -2.393 -23.457  0.00  0.00    -0.390 OA
ATOM     42  H21 3L9 A   1       2.818  -2.778 -22.698  0.00  0.00     0.210 HD
ENDBRANCH  35  41
BRANCH  36  43
ATOM     43  O4A 3L9 A   1       4.988  -0.371 -24.490  0.00  0.00    -0.348 OA
BRANCH  43  44
ATOM     44  C1B 3L9 A   1       6.000  -1.331 -24.606  0.00  0.00     0.292 C 
ATOM     45  C2B 3L9 A   1       6.081  -1.730 -26.086  0.00  0.00     0.204 C 
ATOM     46  C3B 3L9 A   1       6.537  -0.519 -26.895  0.00  0.00     0.183 C 
ATOM     47  C4B 3L9 A   1       7.835   0.074 -26.283  0.00  0.00     0.178 C 
ATOM     48  C5B 3L9 A   1       7.686   0.204 -24.753  0.00  0.00     0.152 C 
ATOM     49  C6B 3L9 A   1       8.996   0.482 -24.036  0.00  0.00     0.042 C 
ATOM     50  O5B 3L9 A   1       7.073  -0.917 -24.179  0.00  0.00    -0.351 OA
BRANCH  45  51
ATOM     51  O2B 3L9 A   1       6.879  -2.745 -26.226  0.00  0.00    -0.388 OA
ATOM     52  H14 3L9 A   1       7.745  -2.522 -25.877  0.00  0.00     0.210 HD
ENDBRANCH  45  51
BRANCH  46  53
ATOM     53  O3B 3L9 A   1       6.695  -0.914 -28.201  0.00  0.00    -0.390 OA
ATOM     54  H22 3L9 A   1       6.296  -1.779 -28.324  0.00  0.00     0.210 HD
ENDBRANCH  46  53
BRANCH  47  55
ATOM     55  O4B 3L9 A   1       8.110   1.270 -26.767  0.00  0.00    -0.390 OA
ATOM     56  H32 3L9 A   1       8.933   1.235 -27.260  0.00  0.00     0.210 HD
ENDBRANCH  47  55
ENDBRANCH  43  44
ENDBRANCH  36  43
ENDBRANCH  32  33
ENDBRANCH  27  32
BRANCH  28  57
ATOM     57  O23 3L9 A   1      -1.635   0.410 -22.669  0.00  0.00    -0.358 OA
ATOM     58  H61 3L9 A   1      -1.866  -0.448 -23.033  0.00  0.00     0.217 HD
ENDBRANCH  28  57
ENDBRANCH  19  24
ENDBRANCH   8   9
ENDBRANCH   1   8
BRANCH   2  59
ATOM     59  O2C 3L9 A   1      -8.324   1.361 -25.414  0.00  0.00    -0.346 OA
BRANCH  59  60
ATOM     60  C1D 3L9 A   1      -9.504   1.540 -24.841  0.00  0.00     0.292 C 
ATOM     61  C2D 3L9 A   1      -9.899   0.587 -23.673  0.00  0.00     0.211 C 
ATOM     62  C3D 3L9 A   1     -11.326   0.991 -23.080  0.00  0.00     0.183 C 
ATOM     63  C4D 3L9 A   1     -11.488   2.504 -22.862  0.00  0.00     0.180 C 
ATOM     64  C5D 3L9 A   1     -11.207   3.226 -24.173  0.00  0.00     0.180 C 
ATOM     65  O5D 3L9 A   1      -9.939   2.864 -24.702  0.00  0.00    -0.348 OA
BRANCH  61  66
ATOM     66  O2D 3L9 A   1      -9.943  -0.712 -24.119  0.00  0.00    -0.346 OA
BRANCH  66  67
ATOM     67  C1E 3L9 A   1      -9.179  -1.663 -23.648  0.00  0.00     0.292 C 
ATOM     68  C2E 3L9 A   1     -10.020  -2.901 -23.345  0.00  0.00     0.204 C 
ATOM     69  C3E 3L9 A   1      -9.100  -3.989 -22.807  0.00  0.00     0.183 C 
ATOM     70  C4E 3L9 A   1      -8.018  -4.317 -23.900  0.00  0.00     0.180 C 
ATOM     71  C5E 3L9 A   1      -7.332  -3.031 -24.259  0.00  0.00     0.179 C 
ATOM     72  O5E 3L9 A   1      -8.266  -2.058 -24.648  0.00  0.00    -0.348 OA
BRANCH  68  73
ATOM     73  O2E 3L9 A   1     -11.108  -2.621 -22.567  0.00  0.00    -0.388 OA
ATOM     74  H15 3L9 A   1     -10.831  -2.522 -21.653  0.00  0.00     0.210 HD
ENDBRANCH  68  73
BRANCH  69  75
ATOM     75  O3E 3L9 A   1      -9.904  -5.080 -22.537  0.00  0.00    -0.390 OA
ATOM     76  H25 3L9 A   1      -9.744  -5.765 -23.190  0.00  0.00     0.210 HD
ENDBRANCH  69  75
BRANCH  70  77
ATOM     77  O4E 3L9 A   1      -7.137  -5.138 -23.394  0.00  0.00    -0.390 OA
ATOM     78  H35 3L9 A   1      -6.770  -4.761 -22.591  0.00  0.00     0.210 HD
ENDBRANCH  70  77
BRANCH  71  79
ATOM     79  C6E 3L9 A   1      -6.290  -3.160 -25.343  0.00  0.00     0.198 C 
BRANCH  79  80
ATOM     80  O6E 3L9 A   1      -5.010  -3.077 -24.796  0.00  0.00    -0.398 OA
ATOM     81  H56 3L9 A   1      -5.012  -3.458 -23.915  0.00  0.00     0.209 HD
ENDBRANCH  79  80
ENDBRANCH  71  79
ENDBRANCH  66  67
ENDBRANCH  61  66
BRANCH  62  82
ATOM     82  O3D 3L9 A   1     -11.320   0.400 -21.819  0.00  0.00    -0.390 OA
ATOM     83  H24 3L9 A   1     -12.214   0.141 -21.582  0.00  0.00     0.210 HD
ENDBRANCH  62  82
BRANCH  63  84
ATOM     84  O4D 3L9 A   1     -12.789   2.800 -22.479  0.00  0.00    -0.390 OA
ATOM     85  H34 3L9 A   1     -13.360   2.792 -23.251  0.00  0.00     0.210 HD
ENDBRANCH  63  84
BRANCH  64  86
ATOM     86  C6D 3L9 A   1     -11.521   4.708 -24.058  0.00  0.00     0.213 C 
BRANCH  86  87
ATOM     87  O6D 3L9 A   1     -10.573   5.429 -23.211  0.00  0.00    -0.316 OA
BRANCH  87  88
ATOM     88  C9F 3L9 A   1     -11.091   5.860 -22.039  0.00  0.00     0.282 C 
ATOM     89  O9F 3L9 A   1     -12.151   5.641 -21.620  0.00  0.00    -0.260 OA
BRANCH  88  90
ATOM     90  C8F 3L9 A   1      -9.988   6.524 -21.216  0.00  0.00     0.083 C 
ATOM     91  C7F 3L9 A   1      -8.900   5.694 -21.034  0.00  0.00     0.017 C 
BRANCH  91  92
ATOM     92  C1F 3L9 A   1      -7.664   6.055 -20.227  0.00  0.00    -0.033 A 
ATOM     93  C2F 3L9 A   1      -7.598   7.161 -19.428  0.00  0.00     0.050 A 
ATOM     94  C3F 3L9 A   1      -6.440   7.514 -18.713  0.00  0.00     0.099 A 
ATOM     95  C4F 3L9 A   1      -5.339   6.700 -18.774  0.00  0.00     0.098 A 
ATOM     96  C5F 3L9 A   1      -5.380   5.634 -19.547  0.00  0.00     0.040 A 
ATOM     97  C6F 3L9 A   1      -6.498   5.296 -20.250  0.00  0.00     0.014 A 
BRANCH  94  98
ATOM     98  O3F 3L9 A   1      -6.513   8.606 -17.970  0.00  0.00    -0.358 OA
ATOM     99  H26 3L9 A   1      -7.268   9.132 -18.247  0.00  0.00     0.217 HD
ENDBRANCH  94  98
BRANCH  95 100
ATOM    100  O4F 3L9 A   1      -4.261   7.031 -18.098  0.00  0.00    -0.358 OA
ATOM    101  H36 3L9 A   1      -4.516   7.381 -17.241  0.00  0.00     0.217 HD
ENDBRANCH  95 100
ENDBRANCH  91  92
ENDBRANCH  88  90
ENDBRANCH  87  88
ENDBRANCH  86  87
ENDBRANCH  64  86
ENDBRANCH  59  60
ENDBRANCH   2  59
BRANCH   3 102
ATOM    102  O3C 3L9 A   1      -8.504   2.760 -28.013  0.00  0.00    -0.390 OA
ATOM    103  H23 3L9 A   1      -8.466   2.299 -28.854  0.00  0.00     0.210 HD
ENDBRANCH   3 102
BRANCH   4 104
ATOM    104  O4C 3L9 A   1      -6.211   1.865 -29.279  0.00  0.00    -0.390 OA
ATOM    105  H33 3L9 A   1      -7.016   2.189 -29.690  0.00  0.00     0.210 HD
ENDBRANCH   4 104
TORSDOF 36
                                                                                                                                                                                                                           
ENDMDL
MODEL 5
REMARK VINA RESULT:    -8.989      4.966      7.797
REMARK INTER + INTRA:         -29.686
REMARK INTER:                 -20.620
REMARK INTRA:                  -9.066
REMARK UNBOUND:                -6.772
REMARK WARNING: 32 MAX_TORS EXCEEDED!!!
REMARK  36 active torsions:
REMARK  status: ('A' for Active; 'I' for Inactive)
REMARK    1  A    between atoms: C1A_2  and  O24_82 
REMARK    2  A    between atoms: C1B_3  and  O4A_40 
REMARK    3  A    between atoms: C1C_4  and  O27_84 
REMARK    4  A    between atoms: C1D_5  and  O2C_17 
REMARK    5  A    between atoms: C1E_6  and  O2D_18 
REMARK    6  A    between atoms: C1F_7  and  C7F_66 
REMARK    7  A    between atoms: C2_8  and  O30_86 
REMARK    8  A    between atoms: C2A_9  and  O2A_15 
REMARK    9  A    between atoms: C2B_10  and  O2B_16 
REMARK   10  A    between atoms: C2C_11  and  O2C_17 
REMARK   11  A    between atoms: C2D_12  and  O2D_18 
REMARK   12  A    between atoms: C2E_13  and  O2E_19 
REMARK   13  A    between atoms: C3A_21  and  O3A_27 
REMARK   14  A    between atoms: C3B_22  and  O3B_28 
REMARK   15  A    between atoms: C3C_23  and  O3C_29 
REMARK   16  A    between atoms: C3D_24  and  O3D_30 
REMARK   17  A    between atoms: C3E_25  and  O3E_31 
REMARK   18  A    between atoms: C3F_26  and  O3F_32 
REMARK   19  A    between atoms: C4A_34  and  O4A_40 
REMARK   20  A    between atoms: C4B_35  and  O4B_41 
REMARK   21  A    between atoms: C4C_36  and  O4C_42 
REMARK   22  A    between atoms: C4D_37  and  O4D_43 
REMARK   23  A    between atoms: C4E_38  and  O4E_44 
REMARK   24  A    between atoms: C4F_39  and  O4F_45 
REMARK   25  A    between atoms: C5D_50  and  C6D_61 
REMARK   26  A    between atoms: C5E_51  and  C6E_62 
REMARK   27  A    between atoms: C6_58  and  O29_85 
REMARK   28  A    between atoms: C6D_61  and  O6D_64 
REMARK   29  A    between atoms: C6E_62  and  O6E_65 
REMARK   30  A    between atoms: O6D_64  and  C9F_69 
REMARK   31  A    between atoms: C8F_67  and  C9F_69 
REMARK   32  A    between atoms: C10_71  and  O27_84 
REMARK   33  A    between atoms: C11_72  and  C14_75 
REMARK   34  A    between atoms: C16_77  and  O25_83 
REMARK   35  A    between atoms: C17_78  and  O24_82 
REMARK   36  A    between atoms: C18_79  and  O23_81 
ROOT
ATOM      1  C1C 3L9 A   1      -9.324   6.297 -23.848  0.00  0.00     0.298 C 
ATOM      2  C2C 3L9 A   1      -9.384   5.747 -25.232  0.00  0.00     0.211 C 
ATOM      3  C3C 3L9 A   1     -10.867   5.339 -25.475  0.00  0.00     0.183 C 
ATOM      4  C4C 3L9 A   1     -11.791   6.554 -25.322  0.00  0.00     0.178 C 
ATOM      5  C5C 3L9 A   1     -11.479   7.229 -23.956  0.00  0.00     0.152 C 
ATOM      6  O5C 3L9 A   1     -10.117   7.382 -23.732  0.00  0.00    -0.351 OA
ATOM      7  C6C 3L9 A   1     -12.181   8.547 -23.728  0.00  0.00     0.042 C 
ENDROOT
BRANCH   1   8
ATOM      8  O27 3L9 A   1      -9.679   5.330 -22.890  0.00  0.00    -0.311 OA
BRANCH   8   9
ATOM      9  C10 3L9 A   1      -8.816   5.175 -21.806  0.00  0.00     0.157 C 
ATOM     10  C9  3L9 A   1      -8.855   6.160 -20.744  0.00  0.00     0.223 C 
ATOM     11  C3  3L9 A   1      -7.742   6.444 -19.897  0.00  0.00     0.084 A 
ATOM     12  O13 3L9 A   1      -9.994   6.693 -20.540  0.00  0.00    -0.284 OA
ATOM     13  C2  3L9 A   1      -7.718   7.325 -18.897  0.00  0.00     0.085 A 
ATOM     14  C4  3L9 A   1      -6.534   5.780 -20.221  0.00  0.00     0.096 A 
ATOM     15  C1  3L9 A   1      -6.612   7.584 -18.158  0.00  0.00     0.074 A 
ATOM     16  C6  3L9 A   1      -5.417   6.921 -18.442  0.00  0.00     0.071 A 
ATOM     17  C5  3L9 A   1      -5.378   6.028 -19.496  0.00  0.00     0.075 A 
ATOM     18  O12 3L9 A   1      -6.512   4.905 -21.213  0.00  0.00    -0.306 OA
ATOM     19  C11 3L9 A   1      -7.445   4.769 -22.180  0.00  0.00     0.124 C 
BRANCH  13  20
ATOM     20  O30 3L9 A   1      -8.864   7.918 -18.579  0.00  0.00    -0.360 OA
ATOM     21  H64 3L9 A   1      -9.509   7.762 -19.274  0.00  0.00     0.217 HD
ENDBRANCH  13  20
BRANCH  16  22
ATOM     22  O29 3L9 A   1      -4.373   7.157 -17.725  0.00  0.00    -0.361 OA
ATOM     23  H63 3L9 A   1      -4.070   8.054 -17.885  0.00  0.00     0.217 HD
ENDBRANCH  16  22
BRANCH  19  24
ATOM     24  C14 3L9 A   1      -7.231   3.798 -23.244  0.00  0.00     0.006 A 
ATOM     25  C15 3L9 A   1      -8.114   2.858 -23.693  0.00  0.00     0.054 A 
ATOM     26  C16 3L9 A   1      -7.836   1.941 -24.738  0.00  0.00     0.102 A 
ATOM     27  C17 3L9 A   1      -6.613   1.957 -25.411  0.00  0.00     0.138 A 
ATOM     28  C18 3L9 A   1      -5.710   2.947 -24.954  0.00  0.00     0.102 A 
ATOM     29  C19 3L9 A   1      -6.024   3.798 -23.921  0.00  0.00     0.054 A 
BRANCH  26  30
ATOM     30  O25 3L9 A   1      -8.758   1.094 -25.045  0.00  0.00    -0.358 OA
ATOM     31  H62 3L9 A   1      -9.611   1.535 -25.045  0.00  0.00     0.217 HD
ENDBRANCH  26  30
BRANCH  27  32
ATOM     32  O24 3L9 A   1      -6.328   1.165 -26.326  0.00  0.00    -0.312 OA
BRANCH  32  33
ATOM     33  C1A 3L9 A   1      -5.275   1.514 -27.131  0.00  0.00     0.297 C 
ATOM     34  C2A 3L9 A   1      -4.675   0.209 -27.688  0.00  0.00     0.205 C 
ATOM     35  C3A 3L9 A   1      -3.579   0.533 -28.652  0.00  0.00     0.182 C 
ATOM     36  C4A 3L9 A   1      -4.106   1.480 -29.764  0.00  0.00     0.180 C 
ATOM     37  C5A 3L9 A   1      -4.731   2.671 -29.104  0.00  0.00     0.205 C 
ATOM     38  O5A 3L9 A   1      -5.734   2.297 -28.176  0.00  0.00    -0.356 OA
BRANCH  34  39
ATOM     39  O2A 3L9 A   1      -4.095  -0.432 -26.654  0.00  0.00    -0.388 OA
ATOM     40  H13 3L9 A   1      -3.349  -0.946 -26.973  0.00  0.00     0.210 HD
ENDBRANCH  34  39
BRANCH  35  41
ATOM     41  O3A 3L9 A   1      -3.232  -0.614 -29.314  0.00  0.00    -0.390 OA
ATOM     42  H21 3L9 A   1      -3.013  -1.298 -28.676  0.00  0.00     0.210 HD
ENDBRANCH  35  41
BRANCH  36  43
ATOM     43  O4A 3L9 A   1      -3.144   1.925 -30.608  0.00  0.00    -0.348 OA
BRANCH  43  44
ATOM     44  C1B 3L9 A   1      -3.224   1.901 -32.006  0.00  0.00     0.292 C 
ATOM     45  C2B 3L9 A   1      -4.283   2.934 -32.418  0.00  0.00     0.204 C 
ATOM     46  C3B 3L9 A   1      -3.785   4.324 -32.036  0.00  0.00     0.183 C 
ATOM     47  C4B 3L9 A   1      -2.360   4.556 -32.604  0.00  0.00     0.178 C 
ATOM     48  C5B 3L9 A   1      -1.468   3.331 -32.309  0.00  0.00     0.152 C 
ATOM     49  C6B 3L9 A   1      -0.161   3.330 -33.082  0.00  0.00     0.042 C 
ATOM     50  O5B 3L9 A   1      -2.137   2.120 -32.529  0.00  0.00    -0.351 OA
BRANCH  45  51
ATOM     51  O2B 3L9 A   1      -4.528   2.829 -33.689  0.00  0.00    -0.388 OA
ATOM     52  H14 3L9 A   1      -5.470   2.704 -33.825  0.00  0.00     0.210 HD
ENDBRANCH  45  51
BRANCH  46  53
ATOM     53  O3B 3L9 A   1      -4.698   5.243 -32.494  0.00  0.00    -0.390 OA
ATOM     54  H22 3L9 A   1      -4.770   5.965 -31.864  0.00  0.00     0.210 HD
ENDBRANCH  46  53
BRANCH  47  55
ATOM     55  O4B 3L9 A   1      -1.780   5.615 -32.073  0.00  0.00    -0.390 OA
ATOM     56  H32 3L9 A   1      -1.716   5.503 -31.122  0.00  0.00     0.210 HD
ENDBRANCH  47  55
ENDBRANCH  43  44
ENDBRANCH  36  43
ENDBRANCH  32  33
ENDBRANCH  27  32
BRANCH  28  57
ATOM     57  O23 3L9 A   1      -4.546   2.951 -25.546  0.00  0.00    -0.358 OA
ATOM     58  H61 3L9 A   1      -3.960   2.331 -25.105  0.00  0.00     0.217 HD
ENDBRANCH  28  57
ENDBRANCH  19  24
ENDBRANCH   8   9
ENDBRANCH   1   8
BRANCH   2  59
ATOM     59  O2C 3L9 A   1      -8.739   6.575 -26.118  0.00  0.00    -0.346 OA
BRANCH  59  60
ATOM     60  C1D 3L9 A   1      -7.612   6.214 -26.711  0.00  0.00     0.292 C 
ATOM     61  C2D 3L9 A   1      -7.581   6.201 -28.270  0.00  0.00     0.211 C 
ATOM     62  C3D 3L9 A   1      -6.129   5.793 -28.795  0.00  0.00     0.183 C 
ATOM     63  C4D 3L9 A   1      -4.989   6.513 -28.057  0.00  0.00     0.180 C 
ATOM     64  C5D 3L9 A   1      -5.129   6.259 -26.562  0.00  0.00     0.180 C 
ATOM     65  O5D 3L9 A   1      -6.422   6.620 -26.095  0.00  0.00    -0.348 OA
BRANCH  61  66
ATOM     66  O2D 3L9 A   1      -8.507   5.309 -28.753  0.00  0.00    -0.346 OA
BRANCH  66  67
ATOM     67  C1E 3L9 A   1      -8.189   4.228 -29.417  0.00  0.00     0.292 C 
ATOM     68  C2E 3L9 A   1      -9.130   3.089 -29.032  0.00  0.00     0.204 C 
ATOM     69  C3E 3L9 A   1      -8.738   1.850 -29.828  0.00  0.00     0.183 C 
ATOM     70  C4E 3L9 A   1      -8.871   2.176 -31.360  0.00  0.00     0.180 C 
ATOM     71  C5E 3L9 A   1      -8.040   3.394 -31.639  0.00  0.00     0.179 C 
ATOM     72  O5E 3L9 A   1      -8.405   4.453 -30.793  0.00  0.00    -0.348 OA
BRANCH  68  73
ATOM     73  O2E 3L9 A   1      -9.215   2.910 -27.680  0.00  0.00    -0.388 OA
ATOM     74  H15 3L9 A   1     -10.137   2.852 -27.421  0.00  0.00     0.210 HD
ENDBRANCH  68  73
BRANCH  69  75
ATOM     75  O3E 3L9 A   1      -9.606   0.848 -29.439  0.00  0.00    -0.390 OA
ATOM     76  H25 3L9 A   1      -9.715   0.870 -28.485  0.00  0.00     0.210 HD
ENDBRANCH  69  75
BRANCH  70  77
ATOM     77  O4E 3L9 A   1      -8.396   1.173 -32.051  0.00  0.00    -0.390 OA
ATOM     78  H35 3L9 A   1      -8.670   1.256 -32.967  0.00  0.00     0.210 HD
ENDBRANCH  70  77
BRANCH  71  79
ATOM     79  C6E 3L9 A   1      -8.098   3.876 -33.067  0.00  0.00     0.198 C 
BRANCH  79  80
ATOM     80  O6E 3L9 A   1      -7.461   5.110 -33.188  0.00  0.00    -0.398 OA
ATOM     81  H56 3L9 A   1      -7.010   5.320 -32.367  0.00  0.00     0.209 HD
ENDBRANCH  79  80
ENDBRANCH  71  79
ENDBRANCH  66  67
ENDBRANCH  61  66
BRANCH  62  82
ATOM     82  O3D 3L9 A   1      -6.125   6.267 -30.105  0.00  0.00    -0.390 OA
ATOM     83  H24 3L9 A   1      -6.360   5.555 -30.705  0.00  0.00     0.210 HD
ENDBRANCH  62  82
BRANCH  63  84
ATOM     84  O4D 3L9 A   1      -3.759   6.014 -28.464  0.00  0.00    -0.390 OA
ATOM     85  H34 3L9 A   1      -3.163   6.743 -28.649  0.00  0.00     0.210 HD
ENDBRANCH  63  84
BRANCH  64  86
ATOM     86  C6D 3L9 A   1      -3.932   6.804 -25.802  0.00  0.00     0.213 C 
BRANCH  86  87
ATOM     87  O6D 3L9 A   1      -3.119   5.756 -25.188  0.00  0.00    -0.316 OA
BRANCH  87  88
ATOM     88  C9F 3L9 A   1      -3.134   5.761 -23.837  0.00  0.00     0.282 C 
ATOM     89  O9F 3L9 A   1      -2.377   5.241 -23.127  0.00  0.00    -0.260 OA
BRANCH  88  90
ATOM     90  C8F 3L9 A   1      -4.197   6.744 -23.349  0.00  0.00     0.083 C 
ATOM     91  C7F 3L9 A   1      -3.710   7.603 -22.384  0.00  0.00     0.017 C 
BRANCH  91  92
ATOM     92  C1F 3L9 A   1      -4.536   8.666 -21.678  0.00  0.00    -0.033 A 
ATOM     93  C2F 3L9 A   1      -5.886   8.791 -21.850  0.00  0.00     0.050 A 
ATOM     94  C3F 3L9 A   1      -6.641   9.799 -21.227  0.00  0.00     0.099 A 
ATOM     95  C4F 3L9 A   1      -6.019  10.672 -20.372  0.00  0.00     0.098 A 
ATOM     96  C5F 3L9 A   1      -4.716  10.574 -20.201  0.00  0.00     0.040 A 
ATOM     97  C6F 3L9 A   1      -3.981   9.604 -20.814  0.00  0.00     0.014 A 
BRANCH  94  98
ATOM     98  O3F 3L9 A   1      -7.941   9.803 -21.473  0.00  0.00    -0.358 OA
ATOM     99  H26 3L9 A   1      -8.423   9.868 -20.645  0.00  0.00     0.217 HD
ENDBRANCH  94  98
BRANCH  95 100
ATOM    100  O4F 3L9 A   1      -6.731  11.609 -19.786  0.00  0.00    -0.358 OA
ATOM    101  H36 3L9 A   1      -6.216  12.417 -19.731  0.00  0.00     0.217 HD
ENDBRANCH  95 100
ENDBRANCH  91  92
ENDBRANCH  88  90
ENDBRANCH  87  88
ENDBRANCH  86  87
ENDBRANCH  64  86
ENDBRANCH  59  60
ENDBRANCH   2  59
BRANCH   3 102
ATOM    102  O3C 3L9 A   1     -10.993   4.735 -26.645  0.00  0.00    -0.390 OA
ATOM    103  H23 3L9 A   1     -11.326   5.359 -27.294  0.00  0.00     0.210 HD
ENDBRANCH   3 102
BRANCH   4 104
ATOM    104  O4C 3L9 A   1     -13.087   6.062 -25.412  0.00  0.00    -0.390 OA
ATOM    105  H33 3L9 A   1     -13.198   5.336 -24.794  0.00  0.00     0.210 HD
ENDBRANCH   4 104
TORSDOF 36
                                                                                                                                                                                                                           
ENDMDL
MODEL 6
REMARK VINA RESULT:    -8.866      1.847      2.894
REMARK INTER + INTRA:         -29.372
REMARK INTER:                 -24.338
REMARK INTRA:                  -5.033
REMARK UNBOUND:                -6.772
REMARK WARNING: 32 MAX_TORS EXCEEDED!!!
REMARK  36 active torsions:
REMARK  status: ('A' for Active; 'I' for Inactive)
REMARK    1  A    between atoms: C1A_2  and  O24_82 
REMARK    2  A    between atoms: C1B_3  and  O4A_40 
REMARK    3  A    between atoms: C1C_4  and  O27_84 
REMARK    4  A    between atoms: C1D_5  and  O2C_17 
REMARK    5  A    between atoms: C1E_6  and  O2D_18 
REMARK    6  A    between atoms: C1F_7  and  C7F_66 
REMARK    7  A    between atoms: C2_8  and  O30_86 
REMARK    8  A    between atoms: C2A_9  and  O2A_15 
REMARK    9  A    between atoms: C2B_10  and  O2B_16 
REMARK   10  A    between atoms: C2C_11  and  O2C_17 
REMARK   11  A    between atoms: C2D_12  and  O2D_18 
REMARK   12  A    between atoms: C2E_13  and  O2E_19 
REMARK   13  A    between atoms: C3A_21  and  O3A_27 
REMARK   14  A    between atoms: C3B_22  and  O3B_28 
REMARK   15  A    between atoms: C3C_23  and  O3C_29 
REMARK   16  A    between atoms: C3D_24  and  O3D_30 
REMARK   17  A    between atoms: C3E_25  and  O3E_31 
REMARK   18  A    between atoms: C3F_26  and  O3F_32 
REMARK   19  A    between atoms: C4A_34  and  O4A_40 
REMARK   20  A    between atoms: C4B_35  and  O4B_41 
REMARK   21  A    between atoms: C4C_36  and  O4C_42 
REMARK   22  A    between atoms: C4D_37  and  O4D_43 
REMARK   23  A    between atoms: C4E_38  and  O4E_44 
REMARK   24  A    between atoms: C4F_39  and  O4F_45 
REMARK   25  A    between atoms: C5D_50  and  C6D_61 
REMARK   26  A    between atoms: C5E_51  and  C6E_62 
REMARK   27  A    between atoms: C6_58  and  O29_85 
REMARK   28  A    between atoms: C6D_61  and  O6D_64 
REMARK   29  A    between atoms: C6E_62  and  O6E_65 
REMARK   30  A    between atoms: O6D_64  and  C9F_69 
REMARK   31  A    between atoms: C8F_67  and  C9F_69 
REMARK   32  A    between atoms: C10_71  and  O27_84 
REMARK   33  A    between atoms: C11_72  and  C14_75 
REMARK   34  A    between atoms: C16_77  and  O25_83 
REMARK   35  A    between atoms: C17_78  and  O24_82 
REMARK   36  A    between atoms: C18_79  and  O23_81 
ROOT
ATOM      1  C1C 3L9 A   1      -4.562   5.480 -26.569  0.00  0.00     0.298 C 
ATOM      2  C2C 3L9 A   1      -5.091   6.668 -27.299  0.00  0.00     0.211 C 
ATOM      3  C3C 3L9 A   1      -3.872   7.315 -28.020  0.00  0.00     0.183 C 
ATOM      4  C4C 3L9 A   1      -3.226   6.314 -28.986  0.00  0.00     0.178 C 
ATOM      5  C5C 3L9 A   1      -2.942   5.000 -28.204  0.00  0.00     0.152 C 
ATOM      6  O5C 3L9 A   1      -4.022   4.594 -27.430  0.00  0.00    -0.351 OA
ATOM      7  C6C 3L9 A   1      -2.467   3.848 -29.056  0.00  0.00     0.042 C 
ENDROOT
BRANCH   1   8
ATOM      8  O27 3L9 A   1      -3.617   5.850 -25.595  0.00  0.00    -0.311 OA
BRANCH   8   9
ATOM      9  C10 3L9 A   1      -4.046   5.836 -24.268  0.00  0.00     0.157 C 
ATOM     10  C9  3L9 A   1      -4.615   7.047 -23.711  0.00  0.00     0.223 C 
ATOM     11  C3  3L9 A   1      -4.592   7.355 -22.318  0.00  0.00     0.084 A 
ATOM     12  O13 3L9 A   1      -5.239   7.785 -24.542  0.00  0.00    -0.284 OA
ATOM     13  C2  3L9 A   1      -5.109   8.441 -21.743  0.00  0.00     0.085 A 
ATOM     14  C4  3L9 A   1      -3.873   6.452 -21.497  0.00  0.00     0.096 A 
ATOM     15  C1  3L9 A   1      -5.012   8.700 -20.416  0.00  0.00     0.074 A 
ATOM     16  C6  3L9 A   1      -4.332   7.809 -19.584  0.00  0.00     0.071 A 
ATOM     17  C5  3L9 A   1      -3.742   6.689 -20.137  0.00  0.00     0.075 A 
ATOM     18  O12 3L9 A   1      -3.337   5.366 -22.030  0.00  0.00    -0.306 OA
ATOM     19  C11 3L9 A   1      -3.124   5.142 -23.345  0.00  0.00     0.124 C 
BRANCH  13  20
ATOM     20  O30 3L9 A   1      -5.809   9.265 -22.516  0.00  0.00    -0.360 OA
ATOM     21  H64 3L9 A   1      -5.930  10.103 -22.063  0.00  0.00     0.217 HD
ENDBRANCH  13  20
BRANCH  16  22
ATOM     22  O29 3L9 A   1      -4.259   8.051 -18.320  0.00  0.00    -0.361 OA
ATOM     23  H63 3L9 A   1      -4.572   7.288 -17.829  0.00  0.00     0.217 HD
ENDBRANCH  16  22
BRANCH  19  24
ATOM     24  C14 3L9 A   1      -2.453   3.917 -23.758  0.00  0.00     0.006 A 
ATOM     25  C15 3L9 A   1      -1.947   3.632 -24.994  0.00  0.00     0.054 A 
ATOM     26  C16 3L9 A   1      -1.304   2.412 -25.327  0.00  0.00     0.102 A 
ATOM     27  C17 3L9 A   1      -1.122   1.405 -24.378  0.00  0.00     0.138 A 
ATOM     28  C18 3L9 A   1      -1.632   1.716 -23.094  0.00  0.00     0.102 A 
ATOM     29  C19 3L9 A   1      -2.266   2.907 -22.832  0.00  0.00     0.054 A 
BRANCH  26  30
ATOM     30  O25 3L9 A   1      -0.891   2.272 -26.540  0.00  0.00    -0.358 OA
ATOM     31  H62 3L9 A   1      -1.373   2.871 -27.115  0.00  0.00     0.217 HD
ENDBRANCH  26  30
BRANCH  27  32
ATOM     32  O24 3L9 A   1      -0.572   0.320 -24.633  0.00  0.00    -0.312 OA
BRANCH  32  33
ATOM     33  C1A 3L9 A   1       0.782   0.259 -24.430  0.00  0.00     0.297 C 
ATOM     34  C2A 3L9 A   1       1.099  -1.143 -23.878  0.00  0.00     0.205 C 
ATOM     35  C3A 3L9 A   1       2.578  -1.301 -23.726  0.00  0.00     0.182 C 
ATOM     36  C4A 3L9 A   1       3.288  -1.007 -25.076  0.00  0.00     0.180 C 
ATOM     37  C5A 3L9 A   1       2.849   0.344 -25.550  0.00  0.00     0.205 C 
ATOM     38  O5A 3L9 A   1       1.438   0.442 -25.635  0.00  0.00    -0.356 OA
BRANCH  34  39
ATOM     39  O2A 3L9 A   1       0.581  -1.205 -22.635  0.00  0.00    -0.388 OA
ATOM     40  H13 3L9 A   1      -0.077  -1.903 -22.596  0.00  0.00     0.210 HD
ENDBRANCH  34  39
BRANCH  35  41
ATOM     41  O3A 3L9 A   1       2.849  -2.619 -23.475  0.00  0.00    -0.390 OA
ATOM     42  H21 3L9 A   1       2.601  -3.148 -24.237  0.00  0.00     0.210 HD
ENDBRANCH  35  41
BRANCH  36  43
ATOM     43  O4A 3L9 A   1       4.641  -1.004 -24.995  0.00  0.00    -0.348 OA
BRANCH  43  44
ATOM     44  C1B 3L9 A   1       5.514  -1.121 -26.083  0.00  0.00     0.292 C 
ATOM     45  C2B 3L9 A   1       6.441   0.104 -26.056  0.00  0.00     0.204 C 
ATOM     46  C3B 3L9 A   1       7.303   0.036 -24.799  0.00  0.00     0.183 C 
ATOM     47  C4B 3L9 A   1       8.006  -1.344 -24.706  0.00  0.00     0.178 C 
ATOM     48  C5B 3L9 A   1       6.991  -2.473 -24.982  0.00  0.00     0.152 C 
ATOM     49  C6B 3L9 A   1       7.636  -3.828 -25.215  0.00  0.00     0.042 C 
ATOM     50  O5B 3L9 A   1       6.140  -2.175 -26.055  0.00  0.00    -0.351 OA
BRANCH  45  51
ATOM     51  O2B 3L9 A   1       7.153   0.140 -27.141  0.00  0.00    -0.388 OA
ATOM     52  H14 3L9 A   1       6.727   0.713 -27.784  0.00  0.00     0.210 HD
ENDBRANCH  45  51
BRANCH  46  53
ATOM     53  O3B 3L9 A   1       8.189   1.085 -24.835  0.00  0.00    -0.390 OA
ATOM     54  H22 3L9 A   1       7.803   1.847 -24.398  0.00  0.00     0.210 HD
ENDBRANCH  46  53
BRANCH  47  55
ATOM     55  O4B 3L9 A   1       8.531  -1.555 -23.514  0.00  0.00    -0.390 OA
ATOM     56  H32 3L9 A   1       9.456  -1.301 -23.522  0.00  0.00     0.210 HD
ENDBRANCH  47  55
ENDBRANCH  43  44
ENDBRANCH  36  43
ENDBRANCH  32  33
ENDBRANCH  27  32
BRANCH  28  57
ATOM     57  O23 3L9 A   1      -1.506   0.769 -22.204  0.00  0.00    -0.358 OA
ATOM     58  H61 3L9 A   1      -1.690   1.124 -21.331  0.00  0.00     0.217 HD
ENDBRANCH  28  57
ENDBRANCH  19  24
ENDBRANCH   8   9
ENDBRANCH   1   8
BRANCH   2  59
ATOM     59  O2C 3L9 A   1      -6.223   6.345 -28.007  0.00  0.00    -0.346 OA
BRANCH  59  60
ATOM     60  C1D 3L9 A   1      -7.343   5.984 -27.399  0.00  0.00     0.292 C 
ATOM     61  C2D 3L9 A   1      -8.008   4.643 -27.835  0.00  0.00     0.211 C 
ATOM     62  C3D 3L9 A   1      -9.311   4.356 -26.957  0.00  0.00     0.183 C 
ATOM     63  C4D 3L9 A   1      -9.099   4.600 -25.454  0.00  0.00     0.180 C 
ATOM     64  C5D 3L9 A   1      -8.596   6.023 -25.251  0.00  0.00     0.180 C 
ATOM     65  O5D 3L9 A   1      -7.438   6.280 -26.034  0.00  0.00    -0.348 OA
BRANCH  61  66
ATOM     66  O2D 3L9 A   1      -8.357   4.699 -29.162  0.00  0.00    -0.346 OA
BRANCH  66  67
ATOM     67  C1E 3L9 A   1      -7.668   4.125 -30.115  0.00  0.00     0.292 C 
ATOM     68  C2E 3L9 A   1      -6.536   5.046 -30.562  0.00  0.00     0.204 C 
ATOM     69  C3E 3L9 A   1      -5.751   4.345 -31.663  0.00  0.00     0.183 C 
ATOM     70  C4E 3L9 A   1      -5.169   3.002 -31.088  0.00  0.00     0.180 C 
ATOM     71  C5E 3L9 A   1      -6.317   2.213 -30.530  0.00  0.00     0.179 C 
ATOM     72  O5E 3L9 A   1      -7.040   2.972 -29.597  0.00  0.00    -0.348 OA
BRANCH  68  73
ATOM     73  O2E 3L9 A   1      -6.971   6.305 -30.868  0.00  0.00    -0.388 OA
ATOM     74  H15 3L9 A   1      -6.689   6.917 -30.185  0.00  0.00     0.210 HD
ENDBRANCH  68  73
BRANCH  69  75
ATOM     75  O3E 3L9 A   1      -4.750   5.217 -32.043  0.00  0.00    -0.390 OA
ATOM     76  H25 3L9 A   1      -5.137   6.056 -32.304  0.00  0.00     0.210 HD
ENDBRANCH  69  75
BRANCH  70  77
ATOM     77  O4E 3L9 A   1      -4.623   2.323 -32.061  0.00  0.00    -0.390 OA
ATOM     78  H35 3L9 A   1      -5.105   1.504 -32.190  0.00  0.00     0.210 HD
ENDBRANCH  70  77
BRANCH  71  79
ATOM     79  C6E 3L9 A   1      -5.923   0.907 -29.886  0.00  0.00     0.198 C 
BRANCH  79  80
ATOM     80  O6E 3L9 A   1      -4.582   0.939 -29.505  0.00  0.00    -0.398 OA
ATOM     81  H56 3L9 A   1      -4.077   1.437 -30.152  0.00  0.00     0.209 HD
ENDBRANCH  79  80
ENDBRANCH  71  79
ENDBRANCH  66  67
ENDBRANCH  61  66
BRANCH  62  82
ATOM     82  O3D 3L9 A   1      -9.502   2.985 -27.120  0.00  0.00    -0.390 OA
ATOM     83  H24 3L9 A   1      -9.250   2.528 -26.314  0.00  0.00     0.210 HD
ENDBRANCH  62  82
BRANCH  63  84
ATOM     84  O4D 3L9 A   1     -10.299   4.467 -24.770  0.00  0.00    -0.390 OA
ATOM     85  H34 3L9 A   1     -10.887   3.892 -25.264  0.00  0.00     0.210 HD
ENDBRANCH  63  84
BRANCH  64  86
ATOM     86  C6D 3L9 A   1      -8.535   6.374 -23.774  0.00  0.00     0.213 C 
BRANCH  86  87
ATOM     87  O6D 3L9 A   1      -7.373   5.800 -23.097  0.00  0.00    -0.316 OA
BRANCH  87  88
ATOM     88  C9F 3L9 A   1      -7.665   5.145 -21.952  0.00  0.00     0.282 C 
ATOM     89  O9F 3L9 A   1      -7.317   4.080 -21.647  0.00  0.00    -0.260 OA
BRANCH  88  90
ATOM     90  C8F 3L9 A   1      -8.366   6.102 -20.989  0.00  0.00     0.083 C 
ATOM     91  C7F 3L9 A   1      -9.472   5.528 -20.396  0.00  0.00     0.017 C 
BRANCH  91  92
ATOM     92  C1F 3L9 A   1     -10.398   6.240 -19.423  0.00  0.00    -0.033 A 
ATOM     93  C2F 3L9 A   1     -11.752   6.054 -19.419  0.00  0.00     0.050 A 
ATOM     94  C3F 3L9 A   1     -12.611   6.744 -18.545  0.00  0.00     0.099 A 
ATOM     95  C4F 3L9 A   1     -12.078   7.606 -17.623  0.00  0.00     0.098 A 
ATOM     96  C5F 3L9 A   1     -10.776   7.806 -17.618  0.00  0.00     0.040 A 
ATOM     97  C6F 3L9 A   1      -9.943   7.147 -18.472  0.00  0.00     0.014 A 
BRANCH  94  98
ATOM     98  O3F 3L9 A   1     -13.900   6.465 -18.640  0.00  0.00    -0.358 OA
ATOM     99  H26 3L9 A   1     -14.079   5.626 -18.210  0.00  0.00     0.217 HD
ENDBRANCH  94  98
BRANCH  95 100
ATOM    100  O4F 3L9 A   1     -12.885   8.243 -16.802  0.00  0.00    -0.358 OA
ATOM    101  H36 3L9 A   1     -12.497   8.265 -15.924  0.00  0.00     0.217 HD
ENDBRANCH  95 100
ENDBRANCH  91  92
ENDBRANCH  88  90
ENDBRANCH  87  88
ENDBRANCH  86  87
ENDBRANCH  64  86
ENDBRANCH  59  60
ENDBRANCH   2  59
BRANCH   3 102
ATOM    102  O3C 3L9 A   1      -4.230   8.445 -28.606  0.00  0.00    -0.390 OA
ATOM    103  H23 3L9 A   1      -3.644   8.623 -29.345  0.00  0.00     0.210 HD
ENDBRANCH   3 102
BRANCH   4 104
ATOM    104  O4C 3L9 A   1      -2.077   6.932 -29.464  0.00  0.00    -0.390 OA
ATOM    105  H33 3L9 A   1      -2.096   7.864 -29.236  0.00  0.00     0.210 HD
ENDBRANCH   4 104
TORSDOF 36
                                                                                                                                                                                                                           
ENDMDL
MODEL 7
REMARK VINA RESULT:    -8.840      4.839     10.097
REMARK INTER + INTRA:         -29.305
REMARK INTER:                 -21.551
REMARK INTRA:                  -7.754
REMARK UNBOUND:                -6.772
REMARK WARNING: 32 MAX_TORS EXCEEDED!!!
REMARK  36 active torsions:
REMARK  status: ('A' for Active; 'I' for Inactive)
REMARK    1  A    between atoms: C1A_2  and  O24_82 
REMARK    2  A    between atoms: C1B_3  and  O4A_40 
REMARK    3  A    between atoms: C1C_4  and  O27_84 
REMARK    4  A    between atoms: C1D_5  and  O2C_17 
REMARK    5  A    between atoms: C1E_6  and  O2D_18 
REMARK    6  A    between atoms: C1F_7  and  C7F_66 
REMARK    7  A    between atoms: C2_8  and  O30_86 
REMARK    8  A    between atoms: C2A_9  and  O2A_15 
REMARK    9  A    between atoms: C2B_10  and  O2B_16 
REMARK   10  A    between atoms: C2C_11  and  O2C_17 
REMARK   11  A    between atoms: C2D_12  and  O2D_18 
REMARK   12  A    between atoms: C2E_13  and  O2E_19 
REMARK   13  A    between atoms: C3A_21  and  O3A_27 
REMARK   14  A    between atoms: C3B_22  and  O3B_28 
REMARK   15  A    between atoms: C3C_23  and  O3C_29 
REMARK   16  A    between atoms: C3D_24  and  O3D_30 
REMARK   17  A    between atoms: C3E_25  and  O3E_31 
REMARK   18  A    between atoms: C3F_26  and  O3F_32 
REMARK   19  A    between atoms: C4A_34  and  O4A_40 
REMARK   20  A    between atoms: C4B_35  and  O4B_41 
REMARK   21  A    between atoms: C4C_36  and  O4C_42 
REMARK   22  A    between atoms: C4D_37  and  O4D_43 
REMARK   23  A    between atoms: C4E_38  and  O4E_44 
REMARK   24  A    between atoms: C4F_39  and  O4F_45 
REMARK   25  A    between atoms: C5D_50  and  C6D_61 
REMARK   26  A    between atoms: C5E_51  and  C6E_62 
REMARK   27  A    between atoms: C6_58  and  O29_85 
REMARK   28  A    between atoms: C6D_61  and  O6D_64 
REMARK   29  A    between atoms: C6E_62  and  O6E_65 
REMARK   30  A    between atoms: O6D_64  and  C9F_69 
REMARK   31  A    between atoms: C8F_67  and  C9F_69 
REMARK   32  A    between atoms: C10_71  and  O27_84 
REMARK   33  A    between atoms: C11_72  and  C14_75 
REMARK   34  A    between atoms: C16_77  and  O25_83 
REMARK   35  A    between atoms: C17_78  and  O24_82 
REMARK   36  A    between atoms: C18_79  and  O23_81 
ROOT
ATOM      1  C1C 3L9 A   1     -11.046   5.062 -23.025  0.00  0.00     0.298 C 
ATOM      2  C2C 3L9 A   1      -9.755   4.847 -23.738  0.00  0.00     0.211 C 
ATOM      3  C3C 3L9 A   1      -9.107   6.253 -23.902  0.00  0.00     0.183 C 
ATOM      4  C4C 3L9 A   1      -8.881   6.904 -22.531  0.00  0.00     0.178 C 
ATOM      5  C5C 3L9 A   1     -10.221   6.853 -21.744  0.00  0.00     0.152 C 
ATOM      6  O5C 3L9 A   1     -10.834   5.607 -21.810  0.00  0.00    -0.351 OA
ATOM      7  C6C 3L9 A   1     -10.125   7.295 -20.304  0.00  0.00     0.042 C 
ENDROOT
BRANCH   1   8
ATOM      8  O27 3L9 A   1     -11.923   5.868 -23.774  0.00  0.00    -0.311 OA
BRANCH   8   9
ATOM      9  C10 3L9 A   1     -13.273   5.521 -23.745  0.00  0.00     0.157 C 
ATOM     10  C9  3L9 A   1     -13.995   5.656 -22.496  0.00  0.00     0.223 C 
ATOM     11  C3  3L9 A   1     -15.148   4.880 -22.169  0.00  0.00     0.084 A 
ATOM     12  O13 3L9 A   1     -13.595   6.598 -21.737  0.00  0.00    -0.284 OA
ATOM     13  C2  3L9 A   1     -15.863   4.966 -21.048  0.00  0.00     0.085 A 
ATOM     14  C4  3L9 A   1     -15.496   3.870 -23.099  0.00  0.00     0.096 A 
ATOM     15  C1  3L9 A   1     -16.921   4.165 -20.775  0.00  0.00     0.074 A 
ATOM     16  C6  3L9 A   1     -17.300   3.181 -21.690  0.00  0.00     0.071 A 
ATOM     17  C5  3L9 A   1     -16.566   3.023 -22.850  0.00  0.00     0.075 A 
ATOM     18  O12 3L9 A   1     -14.806   3.745 -24.221  0.00  0.00    -0.306 OA
ATOM     19  C11 3L9 A   1     -13.591   4.277 -24.476  0.00  0.00     0.124 C 
BRANCH  13  20
ATOM     20  O30 3L9 A   1     -15.548   5.938 -20.197  0.00  0.00    -0.360 OA
ATOM     21  H64 3L9 A   1     -14.689   5.757 -19.808  0.00  0.00     0.217 HD
ENDBRANCH  13  20
BRANCH  16  22
ATOM     22  O29 3L9 A   1     -18.318   2.434 -21.434  0.00  0.00    -0.361 OA
ATOM     23  H63 3L9 A   1     -18.275   1.638 -21.970  0.00  0.00     0.217 HD
ENDBRANCH  16  22
BRANCH  19  24
ATOM     24  C14 3L9 A   1     -12.936   3.980 -25.742  0.00  0.00     0.006 A 
ATOM     25  C15 3L9 A   1     -12.170   2.890 -26.038  0.00  0.00     0.054 A 
ATOM     26  C16 3L9 A   1     -11.559   2.666 -27.298  0.00  0.00     0.102 A 
ATOM     27  C17 3L9 A   1     -11.727   3.561 -28.356  0.00  0.00     0.138 A 
ATOM     28  C18 3L9 A   1     -12.539   4.680 -28.048  0.00  0.00     0.102 A 
ATOM     29  C19 3L9 A   1     -13.090   4.858 -26.801  0.00  0.00     0.054 A 
BRANCH  26  30
ATOM     30  O25 3L9 A   1     -10.846   1.600 -27.431  0.00  0.00    -0.358 OA
ATOM     31  H62 3L9 A   1     -10.557   1.298 -26.566  0.00  0.00     0.217 HD
ENDBRANCH  26  30
BRANCH  27  32
ATOM     32  O24 3L9 A   1     -11.202   3.404 -29.471  0.00  0.00    -0.312 OA
BRANCH  32  33
ATOM     33  C1A 3L9 A   1      -9.851   3.621 -29.547  0.00  0.00     0.297 C 
ATOM     34  C2A 3L9 A   1      -9.607   4.580 -30.727  0.00  0.00     0.205 C 
ATOM     35  C3A 3L9 A   1      -8.155   4.929 -30.798  0.00  0.00     0.182 C 
ATOM     36  C4A 3L9 A   1      -7.676   5.508 -29.439  0.00  0.00     0.180 C 
ATOM     37  C5A 3L9 A   1      -8.032   4.528 -28.363  0.00  0.00     0.205 C 
ATOM     38  O5A 3L9 A   1      -9.412   4.209 -28.373  0.00  0.00    -0.356 OA
BRANCH  34  39
ATOM     39  O2A 3L9 A   1      -9.890   3.898 -31.855  0.00  0.00    -0.388 OA
ATOM     40  H13 3L9 A   1     -10.710   3.412 -31.738  0.00  0.00     0.210 HD
ENDBRANCH  34  39
BRANCH  35  41
ATOM     41  O3A 3L9 A   1      -8.001   5.961 -31.684  0.00  0.00    -0.390 OA
ATOM     42  H21 3L9 A   1      -8.259   5.670 -32.563  0.00  0.00     0.210 HD
ENDBRANCH  35  41
BRANCH  36  43
ATOM     43  O4A 3L9 A   1      -6.341   5.732 -29.377  0.00  0.00    -0.348 OA
BRANCH  43  44
ATOM     44  C1B 3L9 A   1      -5.449   5.061 -28.532  0.00  0.00     0.292 C 
ATOM     45  C2B 3L9 A   1      -4.313   4.516 -29.409  0.00  0.00     0.204 C 
ATOM     46  C3B 3L9 A   1      -3.546   5.694 -30.003  0.00  0.00     0.183 C 
ATOM     47  C4B 3L9 A   1      -3.119   6.675 -28.879  0.00  0.00     0.178 C 
ATOM     48  C5B 3L9 A   1      -4.311   6.952 -27.939  0.00  0.00     0.152 C 
ATOM     49  C6B 3L9 A   1      -3.918   7.648 -26.648  0.00  0.00     0.042 C 
ATOM     50  O5B 3L9 A   1      -5.033   5.790 -27.637  0.00  0.00    -0.351 OA
BRANCH  45  51
ATOM     51  O2B 3L9 A   1      -3.551   3.735 -28.707  0.00  0.00    -0.388 OA
ATOM     52  H14 3L9 A   1      -2.826   4.243 -28.335  0.00  0.00     0.210 HD
ENDBRANCH  45  51
BRANCH  46  53
ATOM     53  O3B 3L9 A   1      -2.479   5.193 -30.709  0.00  0.00    -0.390 OA
ATOM     54  H22 3L9 A   1      -2.103   5.887 -31.256  0.00  0.00     0.210 HD
ENDBRANCH  46  53
BRANCH  47  55
ATOM     55  O4B 3L9 A   1      -2.706   7.832 -29.361  0.00  0.00    -0.390 OA
ATOM     56  H32 3L9 A   1      -2.891   8.528 -28.726  0.00  0.00     0.210 HD
ENDBRANCH  47  55
ENDBRANCH  43  44
ENDBRANCH  36  43
ENDBRANCH  32  33
ENDBRANCH  27  32
BRANCH  28  57
ATOM     57  O23 3L9 A   1     -12.675   5.548 -29.013  0.00  0.00    -0.358 OA
ATOM     58  H61 3L9 A   1     -11.820   5.932 -29.221  0.00  0.00     0.217 HD
ENDBRANCH  28  57
ENDBRANCH  19  24
ENDBRANCH   8   9
ENDBRANCH   1   8
BRANCH   2  59
ATOM     59  O2C 3L9 A   1      -9.044   3.819 -23.167  0.00  0.00    -0.346 OA
BRANCH  59  60
ATOM     60  C1D 3L9 A   1      -8.114   3.160 -23.840  0.00  0.00     0.292 C 
ATOM     61  C2D 3L9 A   1      -8.571   2.291 -25.052  0.00  0.00     0.211 C 
ATOM     62  C3D 3L9 A   1      -7.309   1.619 -25.763  0.00  0.00     0.183 C 
ATOM     63  C4D 3L9 A   1      -6.138   2.593 -25.975  0.00  0.00     0.180 C 
ATOM     64  C5D 3L9 A   1      -5.757   3.207 -24.634  0.00  0.00     0.180 C 
ATOM     65  O5D 3L9 A   1      -6.881   3.803 -24.000  0.00  0.00    -0.348 OA
BRANCH  61  66
ATOM     66  O2D 3L9 A   1      -9.431   1.308 -24.629  0.00  0.00    -0.346 OA
BRANCH  66  67
ATOM     67  C1E 3L9 A   1      -9.211   0.558 -23.580  0.00  0.00     0.292 C 
ATOM     68  C2E 3L9 A   1     -10.452   0.537 -22.690  0.00  0.00     0.204 C 
ATOM     69  C3E 3L9 A   1     -10.165  -0.349 -21.484  0.00  0.00     0.183 C 
ATOM     70  C4E 3L9 A   1      -9.833  -1.799 -21.995  0.00  0.00     0.180 C 
ATOM     71  C5E 3L9 A   1      -8.706  -1.686 -22.978  0.00  0.00     0.179 C 
ATOM     72  O5E 3L9 A   1      -9.020  -0.775 -23.999  0.00  0.00    -0.348 OA
BRANCH  68  73
ATOM     73  O2E 3L9 A   1     -10.910   1.791 -22.395  0.00  0.00    -0.388 OA
ATOM     74  H15 3L9 A   1     -11.870   1.792 -22.408  0.00  0.00     0.210 HD
ENDBRANCH  68  73
BRANCH  69  75
ATOM     75  O3E 3L9 A   1     -11.306  -0.327 -20.706  0.00  0.00    -0.390 OA
ATOM     76  H25 3L9 A   1     -11.847  -1.094 -20.908  0.00  0.00     0.210 HD
ENDBRANCH  69  75
BRANCH  70  77
ATOM     77  O4E 3L9 A   1      -9.441  -2.526 -20.983  0.00  0.00    -0.390 OA
ATOM     78  H35 3L9 A   1     -10.208  -2.889 -20.534  0.00  0.00     0.210 HD
ENDBRANCH  70  77
BRANCH  71  79
ATOM     79  C6E 3L9 A   1      -8.293  -2.993 -23.609  0.00  0.00     0.198 C 
BRANCH  79  80
ATOM     80  O6E 3L9 A   1      -7.576  -3.766 -22.696  0.00  0.00    -0.398 OA
ATOM     81  H56 3L9 A   1      -7.977  -4.636 -22.629  0.00  0.00     0.209 HD
ENDBRANCH  79  80
ENDBRANCH  71  79
ENDBRANCH  66  67
ENDBRANCH  61  66
BRANCH  62  82
ATOM     82  O3D 3L9 A   1      -7.798   1.296 -27.027  0.00  0.00    -0.390 OA
ATOM     83  H24 3L9 A   1      -7.973   2.101 -27.519  0.00  0.00     0.210 HD
ENDBRANCH  62  82
BRANCH  63  84
ATOM     84  O4D 3L9 A   1      -5.031   1.918 -26.468  0.00  0.00    -0.390 OA
ATOM     85  H34 3L9 A   1      -5.276   1.438 -27.262  0.00  0.00     0.210 HD
ENDBRANCH  63  84
BRANCH  64  86
ATOM     86  C6D 3L9 A   1      -4.496   4.046 -24.757  0.00  0.00     0.213 C 
BRANCH  86  87
ATOM     87  O6D 3L9 A   1      -3.300   3.352 -24.284  0.00  0.00    -0.316 OA
BRANCH  87  88
ATOM     88  C9F 3L9 A   1      -2.482   4.111 -23.522  0.00  0.00     0.282 C 
ATOM     89  O9F 3L9 A   1      -1.353   3.932 -23.315  0.00  0.00    -0.260 OA
BRANCH  88  90
ATOM     90  C8F 3L9 A   1      -3.213   5.391 -23.121  0.00  0.00     0.083 C 
ATOM     91  C7F 3L9 A   1      -2.985   5.732 -21.803  0.00  0.00     0.017 C 
BRANCH  91  92
ATOM     92  C1F 3L9 A   1      -3.604   6.929 -21.101  0.00  0.00    -0.033 A 
ATOM     93  C2F 3L9 A   1      -4.135   6.856 -19.844  0.00  0.00     0.050 A 
ATOM     94  C3F 3L9 A   1      -4.743   7.955 -19.211  0.00  0.00     0.099 A 
ATOM     95  C4F 3L9 A   1      -4.770   9.167 -19.851  0.00  0.00     0.098 A 
ATOM     96  C5F 3L9 A   1      -4.272   9.255 -21.068  0.00  0.00     0.040 A 
ATOM     97  C6F 3L9 A   1      -3.692   8.187 -21.687  0.00  0.00     0.014 A 
BRANCH  94  98
ATOM     98  O3F 3L9 A   1      -5.210   7.751 -17.991  0.00  0.00    -0.358 OA
ATOM     99  H26 3L9 A   1      -4.639   8.185 -17.353  0.00  0.00     0.217 HD
ENDBRANCH  94  98
BRANCH  95 100
ATOM    100  O4F 3L9 A   1      -5.333  10.194 -19.252  0.00  0.00    -0.358 OA
ATOM    101  H36 3L9 A   1      -5.073  11.005 -19.694  0.00  0.00     0.217 HD
ENDBRANCH  95 100
ENDBRANCH  91  92
ENDBRANCH  88  90
ENDBRANCH  87  88
ENDBRANCH  86  87
ENDBRANCH  64  86
ENDBRANCH  59  60
ENDBRANCH   2  59
BRANCH   3 102
ATOM    102  O3C 3L9 A   1      -8.003   6.171 -24.626  0.00  0.00    -0.390 OA
ATOM    103  H23 3L9 A   1      -7.696   7.054 -24.843  0.00  0.00     0.210 HD
ENDBRANCH   3 102
BRANCH   4 104
ATOM    104  O4C 3L9 A   1      -8.441   8.196 -22.791  0.00  0.00    -0.390 OA
ATOM    105  H33 3L9 A   1      -8.855   8.521 -23.593  0.00  0.00     0.210 HD
ENDBRANCH   4 104
TORSDOF 36
                                                                                                                                                                                                                           
ENDMDL
MODEL 8
REMARK VINA RESULT:    -8.778      2.582      3.935
REMARK INTER + INTRA:         -29.148
REMARK INTER:                 -23.970
REMARK INTRA:                  -5.178
REMARK UNBOUND:                -6.772
REMARK WARNING: 32 MAX_TORS EXCEEDED!!!
REMARK  36 active torsions:
REMARK  status: ('A' for Active; 'I' for Inactive)
REMARK    1  A    between atoms: C1A_2  and  O24_82 
REMARK    2  A    between atoms: C1B_3  and  O4A_40 
REMARK    3  A    between atoms: C1C_4  and  O27_84 
REMARK    4  A    between atoms: C1D_5  and  O2C_17 
REMARK    5  A    between atoms: C1E_6  and  O2D_18 
REMARK    6  A    between atoms: C1F_7  and  C7F_66 
REMARK    7  A    between atoms: C2_8  and  O30_86 
REMARK    8  A    between atoms: C2A_9  and  O2A_15 
REMARK    9  A    between atoms: C2B_10  and  O2B_16 
REMARK   10  A    between atoms: C2C_11  and  O2C_17 
REMARK   11  A    between atoms: C2D_12  and  O2D_18 
REMARK   12  A    between atoms: C2E_13  and  O2E_19 
REMARK   13  A    between atoms: C3A_21  and  O3A_27 
REMARK   14  A    between atoms: C3B_22  and  O3B_28 
REMARK   15  A    between atoms: C3C_23  and  O3C_29 
REMARK   16  A    between atoms: C3D_24  and  O3D_30 
REMARK   17  A    between atoms: C3E_25  and  O3E_31 
REMARK   18  A    between atoms: C3F_26  and  O3F_32 
REMARK   19  A    between atoms: C4A_34  and  O4A_40 
REMARK   20  A    between atoms: C4B_35  and  O4B_41 
REMARK   21  A    between atoms: C4C_36  and  O4C_42 
REMARK   22  A    between atoms: C4D_37  and  O4D_43 
REMARK   23  A    between atoms: C4E_38  and  O4E_44 
REMARK   24  A    between atoms: C4F_39  and  O4F_45 
REMARK   25  A    between atoms: C5D_50  and  C6D_61 
REMARK   26  A    between atoms: C5E_51  and  C6E_62 
REMARK   27  A    between atoms: C6_58  and  O29_85 
REMARK   28  A    between atoms: C6D_61  and  O6D_64 
REMARK   29  A    between atoms: C6E_62  and  O6E_65 
REMARK   30  A    between atoms: O6D_64  and  C9F_69 
REMARK   31  A    between atoms: C8F_67  and  C9F_69 
REMARK   32  A    between atoms: C10_71  and  O27_84 
REMARK   33  A    between atoms: C11_72  and  C14_75 
REMARK   34  A    between atoms: C16_77  and  O25_83 
REMARK   35  A    between atoms: C17_78  and  O24_82 
REMARK   36  A    between atoms: C18_79  and  O23_81 
ROOT
ATOM      1  C1C 3L9 A   1      -3.990   4.566 -27.177  0.00  0.00     0.298 C 
ATOM      2  C2C 3L9 A   1      -4.863   5.501 -27.943  0.00  0.00     0.211 C 
ATOM      3  C3C 3L9 A   1      -3.907   6.483 -28.683  0.00  0.00     0.183 C 
ATOM      4  C4C 3L9 A   1      -2.965   5.713 -29.618  0.00  0.00     0.178 C 
ATOM      5  C5C 3L9 A   1      -2.285   4.581 -28.796  0.00  0.00     0.152 C 
ATOM      6  O5C 3L9 A   1      -3.187   3.874 -28.011  0.00  0.00    -0.351 OA
ATOM      7  C6C 3L9 A   1      -1.458   3.617 -29.612  0.00  0.00     0.042 C 
ENDROOT
BRANCH   1   8
ATOM      8  O27 3L9 A   1      -3.222   5.246 -26.214  0.00  0.00    -0.311 OA
BRANCH   8   9
ATOM      9  C10 3L9 A   1      -3.696   5.222 -24.903  0.00  0.00     0.157 C 
ATOM     10  C9  3L9 A   1      -4.393   6.387 -24.396  0.00  0.00     0.223 C 
ATOM     11  C3  3L9 A   1      -4.450   6.726 -23.011  0.00  0.00     0.084 A 
ATOM     12  O13 3L9 A   1      -5.052   7.045 -25.266  0.00  0.00    -0.284 OA
ATOM     13  C2  3L9 A   1      -5.084   7.771 -22.482  0.00  0.00     0.085 A 
ATOM     14  C4  3L9 A   1      -3.682   5.911 -22.144  0.00  0.00     0.096 A 
ATOM     15  C1  3L9 A   1      -5.060   8.067 -21.159  0.00  0.00     0.074 A 
ATOM     16  C6  3L9 A   1      -4.332   7.261 -20.282  0.00  0.00     0.071 A 
ATOM     17  C5  3L9 A   1      -3.623   6.188 -20.787  0.00  0.00     0.075 A 
ATOM     18  O12 3L9 A   1      -3.029   4.868 -22.630  0.00  0.00    -0.306 OA
ATOM     19  C11 3L9 A   1      -2.749   4.636 -23.931  0.00  0.00     0.124 C 
BRANCH  13  20
ATOM     20  O30 3L9 A   1      -5.828   8.510 -23.298  0.00  0.00    -0.360 OA
ATOM     21  H64 3L9 A   1      -6.710   8.135 -23.355  0.00  0.00     0.217 HD
ENDBRANCH  13  20
BRANCH  16  22
ATOM     22  O29 3L9 A   1      -4.327   7.536 -19.023  0.00  0.00    -0.361 OA
ATOM     23  H63 3L9 A   1      -4.270   6.721 -18.517  0.00  0.00     0.217 HD
ENDBRANCH  16  22
BRANCH  19  24
ATOM     24  C14 3L9 A   1      -1.955   3.469 -24.291  0.00  0.00     0.006 A 
ATOM     25  C15 3L9 A   1      -1.604   3.067 -25.548  0.00  0.00     0.054 A 
ATOM     26  C16 3L9 A   1      -0.825   1.914 -25.824  0.00  0.00     0.102 A 
ATOM     27  C17 3L9 A   1      -0.333   1.106 -24.798  0.00  0.00     0.138 A 
ATOM     28  C18 3L9 A   1      -0.684   1.541 -23.497  0.00  0.00     0.102 A 
ATOM     29  C19 3L9 A   1      -1.461   2.656 -23.286  0.00  0.00     0.054 A 
BRANCH  26  30
ATOM     30  O25 3L9 A   1      -0.586   1.643 -27.062  0.00  0.00    -0.358 OA
ATOM     31  H62 3L9 A   1      -0.840   2.391 -27.609  0.00  0.00     0.217 HD
ENDBRANCH  26  30
BRANCH  27  32
ATOM     32  O24 3L9 A   1       0.345   0.085 -25.000  0.00  0.00    -0.312 OA
BRANCH  32  33
ATOM     33  C1A 3L9 A   1       1.694   0.193 -24.781  0.00  0.00     0.297 C 
ATOM     34  C2A 3L9 A   1       2.208  -1.207 -24.397  0.00  0.00     0.205 C 
ATOM     35  C3A 3L9 A   1       3.694  -1.169 -24.239  0.00  0.00     0.182 C 
ATOM     36  C4A 3L9 A   1       4.356  -0.614 -25.530  0.00  0.00     0.180 C 
ATOM     37  C5A 3L9 A   1       3.727   0.708 -25.844  0.00  0.00     0.205 C 
ATOM     38  O5A 3L9 A   1       2.317   0.614 -25.943  0.00  0.00    -0.356 OA
BRANCH  34  39
ATOM     39  O2A 3L9 A   1       1.703  -1.493 -23.181  0.00  0.00    -0.388 OA
ATOM     40  H13 3L9 A   1       2.155  -2.259 -22.818  0.00  0.00     0.210 HD
ENDBRANCH  34  39
BRANCH  35  41
ATOM     41  O3A 3L9 A   1       4.152  -2.456 -24.144  0.00  0.00    -0.390 OA
ATOM     42  H21 3L9 A   1       3.943  -2.807 -23.275  0.00  0.00     0.210 HD
ENDBRANCH  35  41
BRANCH  36  43
ATOM     43  O4A 3L9 A   1       5.694  -0.427 -25.424  0.00  0.00    -0.348 OA
BRANCH  43  44
ATOM     44  C1B 3L9 A   1       6.532   0.004 -26.459  0.00  0.00     0.292 C 
ATOM     45  C2B 3L9 A   1       7.734   0.706 -25.809  0.00  0.00     0.204 C 
ATOM     46  C3B 3L9 A   1       8.527  -0.323 -25.009  0.00  0.00     0.183 C 
ATOM     47  C4B 3L9 A   1       8.862  -1.549 -25.899  0.00  0.00     0.178 C 
ATOM     48  C5B 3L9 A   1       7.604  -2.003 -26.668  0.00  0.00     0.152 C 
ATOM     49  C6B 3L9 A   1       7.897  -2.990 -27.785  0.00  0.00     0.042 C 
ATOM     50  O5B 3L9 A   1       6.876  -0.923 -27.184  0.00  0.00    -0.351 OA
BRANCH  45  51
ATOM     51  O2B 3L9 A   1       8.454   1.282 -26.723  0.00  0.00    -0.388 OA
ATOM     52  H14 3L9 A   1       8.766   2.130 -26.398  0.00  0.00     0.210 HD
ENDBRANCH  45  51
BRANCH  46  53
ATOM     53  O3B 3L9 A   1       9.647   0.298 -24.511  0.00  0.00    -0.390 OA
ATOM     54  H22 3L9 A   1       9.695   1.194 -24.852  0.00  0.00     0.210 HD
ENDBRANCH  46  53
BRANCH  47  55
ATOM     55  O4B 3L9 A   1       9.295  -2.574 -25.190  0.00  0.00    -0.390 OA
ATOM     56  H32 3L9 A   1      10.247  -2.513 -25.086  0.00  0.00     0.210 HD
ENDBRANCH  47  55
ENDBRANCH  43  44
ENDBRANCH  36  43
ENDBRANCH  32  33
ENDBRANCH  27  32
BRANCH  28  57
ATOM     57  O23 3L9 A   1      -0.266   0.776 -22.525  0.00  0.00    -0.358 OA
ATOM     58  H61 3L9 A   1      -0.409  -0.144 -22.758  0.00  0.00     0.217 HD
ENDBRANCH  28  57
ENDBRANCH  19  24
ENDBRANCH   8   9
ENDBRANCH   1   8
BRANCH   2  59
ATOM     59  O2C 3L9 A   1      -5.826   4.813 -28.641  0.00  0.00    -0.346 OA
BRANCH  59  60
ATOM     60  C1D 3L9 A   1      -7.103   5.156 -28.583  0.00  0.00     0.292 C 
ATOM     61  C2D 3L9 A   1      -8.061   4.580 -29.670  0.00  0.00     0.211 C 
ATOM     62  C3D 3L9 A   1      -9.560   5.063 -29.404  0.00  0.00     0.183 C 
ATOM     63  C4D 3L9 A   1      -9.986   4.946 -27.932  0.00  0.00     0.180 C 
ATOM     64  C5D 3L9 A   1      -8.994   5.713 -27.068  0.00  0.00     0.180 C 
ATOM     65  O5D 3L9 A   1      -7.661   5.286 -27.306  0.00  0.00    -0.348 OA
BRANCH  61  66
ATOM     66  O2D 3L9 A   1      -7.664   4.996 -30.918  0.00  0.00    -0.346 OA
BRANCH  66  67
ATOM     67  C1E 3L9 A   1      -7.069   4.215 -31.783  0.00  0.00     0.292 C 
ATOM     68  C2E 3L9 A   1      -7.913   4.110 -33.050  0.00  0.00     0.204 C 
ATOM     69  C3E 3L9 A   1      -7.189   3.202 -34.037  0.00  0.00     0.183 C 
ATOM     70  C4E 3L9 A   1      -5.787   3.835 -34.365  0.00  0.00     0.180 C 
ATOM     71  C5E 3L9 A   1      -5.072   4.051 -33.063  0.00  0.00     0.179 C 
ATOM     72  O5E 3L9 A   1      -5.855   4.813 -32.182  0.00  0.00    -0.348 OA
BRANCH  68  73
ATOM     73  O2E 3L9 A   1      -9.211   3.770 -32.792  0.00  0.00    -0.388 OA
ATOM     74  H15 3L9 A   1      -9.325   3.632 -31.849  0.00  0.00     0.210 HD
ENDBRANCH  68  73
BRANCH  69  75
ATOM     75  O3E 3L9 A   1      -7.993   3.127 -35.158  0.00  0.00    -0.390 OA
ATOM     76  H25 3L9 A   1      -7.447   2.988 -35.935  0.00  0.00     0.210 HD
ENDBRANCH  69  75
BRANCH  70  77
ATOM     77  O4E 3L9 A   1      -5.100   2.994 -35.090  0.00  0.00    -0.390 OA
ATOM     78  H35 3L9 A   1      -4.320   3.432 -35.437  0.00  0.00     0.210 HD
ENDBRANCH  70  77
BRANCH  71  79
ATOM     79  C6E 3L9 A   1      -3.719   4.704 -33.195  0.00  0.00     0.198 C 
BRANCH  79  80
ATOM     80  O6E 3L9 A   1      -3.720   5.614 -34.251  0.00  0.00    -0.398 OA
ATOM     81  H56 3L9 A   1      -2.820   5.764 -34.547  0.00  0.00     0.209 HD
ENDBRANCH  79  80
ENDBRANCH  71  79
ENDBRANCH  66  67
ENDBRANCH  61  66
BRANCH  62  82
ATOM     82  O3D 3L9 A   1     -10.318   4.138 -30.119  0.00  0.00    -0.390 OA
ATOM     83  H24 3L9 A   1     -11.039   3.821 -29.570  0.00  0.00     0.210 HD
ENDBRANCH  62  82
BRANCH  63  84
ATOM     84  O4D 3L9 A   1     -11.242   5.507 -27.746  0.00  0.00    -0.390 OA
ATOM     85  H34 3L9 A   1     -11.165   6.463 -27.728  0.00  0.00     0.210 HD
ENDBRANCH  63  84
BRANCH  64  86
ATOM     86  C6D 3L9 A   1      -9.464   5.775 -25.624  0.00  0.00     0.213 C 
BRANCH  86  87
ATOM     87  O6D 3L9 A   1      -9.662   4.454 -25.030  0.00  0.00    -0.316 OA
BRANCH  87  88
ATOM     88  C9F 3L9 A   1      -8.775   4.142 -24.059  0.00  0.00     0.282 C 
ATOM     89  O9F 3L9 A   1      -7.678   3.790 -24.201  0.00  0.00    -0.260 OA
BRANCH  88  90
ATOM     90  C8F 3L9 A   1      -9.361   4.525 -22.701  0.00  0.00     0.083 C 
ATOM     91  C7F 3L9 A   1      -8.676   5.568 -22.111  0.00  0.00     0.017 C 
BRANCH  91  92
ATOM     92  C1F 3L9 A   1      -8.994   6.147 -20.743  0.00  0.00    -0.033 A 
ATOM     93  C2F 3L9 A   1      -8.043   6.709 -19.937  0.00  0.00     0.050 A 
ATOM     94  C3F 3L9 A   1      -8.333   7.208 -18.655  0.00  0.00     0.099 A 
ATOM     95  C4F 3L9 A   1      -9.625   7.179 -18.200  0.00  0.00     0.098 A 
ATOM     96  C5F 3L9 A   1     -10.554   6.632 -18.957  0.00  0.00     0.040 A 
ATOM     97  C6F 3L9 A   1     -10.273   6.137 -20.196  0.00  0.00     0.014 A 
BRANCH  94  98
ATOM     98  O3F 3L9 A   1      -7.322   7.733 -17.983  0.00  0.00    -0.358 OA
ATOM     99  H26 3L9 A   1      -7.551   8.622 -17.702  0.00  0.00     0.217 HD
ENDBRANCH  94  98
BRANCH  95 100
ATOM    100  O4F 3L9 A   1      -9.892   7.654 -17.003  0.00  0.00    -0.358 OA
ATOM    101  H36 3L9 A   1     -10.465   7.042 -16.535  0.00  0.00     0.217 HD
ENDBRANCH  95 100
ENDBRANCH  91  92
ENDBRANCH  88  90
ENDBRANCH  87  88
ENDBRANCH  86  87
ENDBRANCH  64  86
ENDBRANCH  59  60
ENDBRANCH   2  59
BRANCH   3 102
ATOM    102  O3C 3L9 A   1      -4.601   7.422 -29.304  0.00  0.00    -0.390 OA
ATOM    103  H23 3L9 A   1      -4.448   7.361 -30.249  0.00  0.00     0.210 HD
ENDBRANCH   3 102
BRANCH   4 104
ATOM    104  O4C 3L9 A   1      -2.069   6.652 -30.113  0.00  0.00    -0.390 OA
ATOM    105  H33 3L9 A   1      -2.200   7.489 -29.663  0.00  0.00     0.210 HD
ENDBRANCH   4 104
TORSDOF 36
                                                                                                                                                                                                                           
ENDMDL
MODEL 9
REMARK VINA RESULT:    -8.701      4.096     11.501
REMARK INTER + INTRA:         -28.953
REMARK INTER:                 -21.799
REMARK INTRA:                  -7.154
REMARK UNBOUND:                -6.772
REMARK WARNING: 32 MAX_TORS EXCEEDED!!!
REMARK  36 active torsions:
REMARK  status: ('A' for Active; 'I' for Inactive)
REMARK    1  A    between atoms: C1A_2  and  O24_82 
REMARK    2  A    between atoms: C1B_3  and  O4A_40 
REMARK    3  A    between atoms: C1C_4  and  O27_84 
REMARK    4  A    between atoms: C1D_5  and  O2C_17 
REMARK    5  A    between atoms: C1E_6  and  O2D_18 
REMARK    6  A    between atoms: C1F_7  and  C7F_66 
REMARK    7  A    between atoms: C2_8  and  O30_86 
REMARK    8  A    between atoms: C2A_9  and  O2A_15 
REMARK    9  A    between atoms: C2B_10  and  O2B_16 
REMARK   10  A    between atoms: C2C_11  and  O2C_17 
REMARK   11  A    between atoms: C2D_12  and  O2D_18 
REMARK   12  A    between atoms: C2E_13  and  O2E_19 
REMARK   13  A    between atoms: C3A_21  and  O3A_27 
REMARK   14  A    between atoms: C3B_22  and  O3B_28 
REMARK   15  A    between atoms: C3C_23  and  O3C_29 
REMARK   16  A    between atoms: C3D_24  and  O3D_30 
REMARK   17  A    between atoms: C3E_25  and  O3E_31 
REMARK   18  A    between atoms: C3F_26  and  O3F_32 
REMARK   19  A    between atoms: C4A_34  and  O4A_40 
REMARK   20  A    between atoms: C4B_35  and  O4B_41 
REMARK   21  A    between atoms: C4C_36  and  O4C_42 
REMARK   22  A    between atoms: C4D_37  and  O4D_43 
REMARK   23  A    between atoms: C4E_38  and  O4E_44 
REMARK   24  A    between atoms: C4F_39  and  O4F_45 
REMARK   25  A    between atoms: C5D_50  and  C6D_61 
REMARK   26  A    between atoms: C5E_51  and  C6E_62 
REMARK   27  A    between atoms: C6_58  and  O29_85 
REMARK   28  A    between atoms: C6D_61  and  O6D_64 
REMARK   29  A    between atoms: C6E_62  and  O6E_65 
REMARK   30  A    between atoms: O6D_64  and  C9F_69 
REMARK   31  A    between atoms: C8F_67  and  C9F_69 
REMARK   32  A    between atoms: C10_71  and  O27_84 
REMARK   33  A    between atoms: C11_72  and  C14_75 
REMARK   34  A    between atoms: C16_77  and  O25_83 
REMARK   35  A    between atoms: C17_78  and  O24_82 
REMARK   36  A    between atoms: C18_79  and  O23_81 
ROOT
ATOM      1  C1C 3L9 A   1      -3.967   4.473 -29.865  0.00  0.00     0.298 C 
ATOM      2  C2C 3L9 A   1      -2.949   5.560 -29.942  0.00  0.00     0.211 C 
ATOM      3  C3C 3L9 A   1      -3.580   6.799 -29.242  0.00  0.00     0.183 C 
ATOM      4  C4C 3L9 A   1      -3.932   6.472 -27.785  0.00  0.00     0.178 C 
ATOM      5  C5C 3L9 A   1      -4.782   5.170 -27.773  0.00  0.00     0.152 C 
ATOM      6  O5C 3L9 A   1      -4.247   4.174 -28.580  0.00  0.00    -0.351 OA
ATOM      7  C6C 3L9 A   1      -5.063   4.612 -26.398  0.00  0.00     0.042 C 
ENDROOT
BRANCH   1   8
ATOM      8  O27 3L9 A   1      -5.144   4.817 -30.553  0.00  0.00    -0.311 OA
BRANCH   8   9
ATOM      9  C10 3L9 A   1      -5.713   3.829 -31.356  0.00  0.00     0.157 C 
ATOM     10  C9  3L9 A   1      -5.294   3.735 -32.740  0.00  0.00     0.223 C 
ATOM     11  C3  3L9 A   1      -6.114   3.189 -33.772  0.00  0.00     0.084 A 
ATOM     12  O13 3L9 A   1      -4.089   4.080 -32.966  0.00  0.00    -0.284 OA
ATOM     13  C2  3L9 A   1      -5.783   3.062 -35.057  0.00  0.00     0.085 A 
ATOM     14  C4  3L9 A   1      -7.432   2.836 -33.392  0.00  0.00     0.096 A 
ATOM     15  C1  3L9 A   1      -6.628   2.579 -36.000  0.00  0.00     0.074 A 
ATOM     16  C6  3L9 A   1      -7.922   2.198 -35.642  0.00  0.00     0.071 A 
ATOM     17  C5  3L9 A   1      -8.329   2.349 -34.330  0.00  0.00     0.075 A 
ATOM     18  O12 3L9 A   1      -7.805   2.955 -32.128  0.00  0.00    -0.306 OA
ATOM     19  C11 3L9 A   1      -7.170   3.669 -31.171  0.00  0.00     0.124 C 
BRANCH  13  20
ATOM     20  O30 3L9 A   1      -4.535   3.366 -35.397  0.00  0.00    -0.360 OA
ATOM     21  H64 3L9 A   1      -4.541   3.890 -36.201  0.00  0.00     0.217 HD
ENDBRANCH  13  20
BRANCH  16  22
ATOM     22  O29 3L9 A   1      -8.715   1.722 -36.539  0.00  0.00    -0.361 OA
ATOM     23  H63 3L9 A   1      -8.220   1.539 -37.341  0.00  0.00     0.217 HD
ENDBRANCH  16  22
BRANCH  19  24
ATOM     24  C14 3L9 A   1      -7.757   3.754 -29.841  0.00  0.00     0.006 A 
ATOM     25  C15 3L9 A   1      -7.530   2.919 -28.785  0.00  0.00     0.054 A 
ATOM     26  C16 3L9 A   1      -8.140   3.064 -27.513  0.00  0.00     0.102 A 
ATOM     27  C17 3L9 A   1      -9.019   4.114 -27.244  0.00  0.00     0.138 A 
ATOM     28  C18 3L9 A   1      -9.234   4.987 -28.338  0.00  0.00     0.102 A 
ATOM     29  C19 3L9 A   1      -8.632   4.788 -29.558  0.00  0.00     0.054 A 
BRANCH  26  30
ATOM     30  O25 3L9 A   1      -7.847   2.188 -26.612  0.00  0.00    -0.358 OA
ATOM     31  H62 3L9 A   1      -7.605   2.635 -25.798  0.00  0.00     0.217 HD
ENDBRANCH  26  30
BRANCH  27  32
ATOM     32  O24 3L9 A   1      -9.579   4.269 -26.145  0.00  0.00    -0.312 OA
BRANCH  32  33
ATOM     33  C1A 3L9 A   1      -8.909   5.026 -25.220  0.00  0.00     0.297 C 
ATOM     34  C2A 3L9 A   1      -9.951   5.920 -24.521  0.00  0.00     0.205 C 
ATOM     35  C3A 3L9 A   1      -9.290   6.702 -23.431  0.00  0.00     0.182 C 
ATOM     36  C4A 3L9 A   1      -8.560   5.743 -22.451  0.00  0.00     0.180 C 
ATOM     37  C5A 3L9 A   1      -7.635   4.877 -23.249  0.00  0.00     0.205 C 
ATOM     38  O5A 3L9 A   1      -8.313   4.194 -24.288  0.00  0.00    -0.356 OA
BRANCH  34  39
ATOM     39  O2A 3L9 A   1     -10.374   6.820 -25.431  0.00  0.00    -0.388 OA
ATOM     40  H13 3L9 A   1     -10.231   6.472 -26.315  0.00  0.00     0.210 HD
ENDBRANCH  34  39
BRANCH  35  41
ATOM     41  O3A 3L9 A   1     -10.264   7.294 -22.672  0.00  0.00    -0.390 OA
ATOM     42  H21 3L9 A   1     -10.936   6.645 -22.450  0.00  0.00     0.210 HD
ENDBRANCH  35  41
BRANCH  36  43
ATOM     43  O4A 3L9 A   1      -7.829   6.379 -21.504  0.00  0.00    -0.348 OA
BRANCH  43  44
ATOM     44  C1B 3L9 A   1      -6.540   6.892 -21.691  0.00  0.00     0.292 C 
ATOM     45  C2B 3L9 A   1      -6.666   8.421 -21.771  0.00  0.00     0.204 C 
ATOM     46  C3B 3L9 A   1      -7.149   8.943 -20.422  0.00  0.00     0.183 C 
ATOM     47  C4B 3L9 A   1      -6.245   8.400 -19.284  0.00  0.00     0.178 C 
ATOM     48  C5B 3L9 A   1      -6.020   6.884 -19.466  0.00  0.00     0.152 C 
ATOM     49  C6B 3L9 A   1      -4.913   6.323 -18.590  0.00  0.00     0.042 C 
ATOM     50  O5B 3L9 A   1      -5.774   6.538 -20.801  0.00  0.00    -0.351 OA
BRANCH  45  51
ATOM     51  O2B 3L9 A   1      -5.528   8.938 -22.122  0.00  0.00    -0.388 OA
ATOM     52  H14 3L9 A   1      -5.274   8.599 -22.984  0.00  0.00     0.210 HD
ENDBRANCH  45  51
BRANCH  46  53
ATOM     53  O3B 3L9 A   1      -7.168  10.315 -20.479  0.00  0.00    -0.390 OA
ATOM     54  H22 3L9 A   1      -7.723  10.658 -19.774  0.00  0.00     0.210 HD
ENDBRANCH  46  53
BRANCH  47  55
ATOM     55  O4B 3L9 A   1      -6.779   8.589 -18.092  0.00  0.00    -0.390 OA
ATOM     56  H32 3L9 A   1      -7.286   9.404 -18.094  0.00  0.00     0.210 HD
ENDBRANCH  47  55
ENDBRANCH  43  44
ENDBRANCH  36  43
ENDBRANCH  32  33
ENDBRANCH  27  32
BRANCH  28  57
ATOM     57  O23 3L9 A   1     -10.084   5.953 -28.117  0.00  0.00    -0.358 OA
ATOM     58  H61 3L9 A   1     -10.658   5.714 -27.385  0.00  0.00     0.217 HD
ENDBRANCH  28  57
ENDBRANCH  19  24
ENDBRANCH   8   9
ENDBRANCH   1   8
BRANCH   2  59
ATOM     59  O2C 3L9 A   1      -1.712   5.102 -29.557  0.00  0.00    -0.346 OA
BRANCH  59  60
ATOM     60  C1D 3L9 A   1      -1.307   3.874 -29.840  0.00  0.00     0.292 C 
ATOM     61  C2D 3L9 A   1      -0.080   3.712 -30.787  0.00  0.00     0.211 C 
ATOM     62  C3D 3L9 A   1       0.287   2.168 -30.966  0.00  0.00     0.183 C 
ATOM     63  C4D 3L9 A   1       0.289   1.385 -29.643  0.00  0.00     0.180 C 
ATOM     64  C5D 3L9 A   1      -1.063   1.559 -28.964  0.00  0.00     0.180 C 
ATOM     65  O5D 3L9 A   1      -1.390   2.933 -28.807  0.00  0.00    -0.348 OA
BRANCH  61  66
ATOM     66  O2D 3L9 A   1      -0.357   4.259 -32.017  0.00  0.00    -0.346 OA
BRANCH  66  67
ATOM     67  C1E 3L9 A   1       0.093   3.768 -33.143  0.00  0.00     0.292 C 
ATOM     68  C2E 3L9 A   1      -0.645   4.407 -34.317  0.00  0.00     0.204 C 
ATOM     69  C3E 3L9 A   1      -0.092   3.821 -35.610  0.00  0.00     0.183 C 
ATOM     70  C4E 3L9 A   1       1.445   4.141 -35.689  0.00  0.00     0.180 C 
ATOM     71  C5E 3L9 A   1       2.083   3.619 -34.436  0.00  0.00     0.179 C 
ATOM     72  O5E 3L9 A   1       1.446   4.136 -33.297  0.00  0.00    -0.348 OA
BRANCH  68  73
ATOM     73  O2E 3L9 A   1      -2.003   4.344 -34.183  0.00  0.00    -0.388 OA
ATOM     74  H15 3L9 A   1      -2.325   3.524 -34.565  0.00  0.00     0.210 HD
ENDBRANCH  68  73
BRANCH  69  75
ATOM     75  O3E 3L9 A   1      -0.795   4.417 -36.639  0.00  0.00    -0.390 OA
ATOM     76  H25 3L9 A   1      -0.694   3.898 -37.440  0.00  0.00     0.210 HD
ENDBRANCH  69  75
BRANCH  70  77
ATOM     77  O4E 3L9 A   1       1.957   3.517 -36.717  0.00  0.00    -0.390 OA
ATOM     78  H35 3L9 A   1       1.364   3.594 -37.467  0.00  0.00     0.210 HD
ENDBRANCH  70  77
BRANCH  71  79
ATOM     79  C6E 3L9 A   1       3.563   3.891 -34.327  0.00  0.00     0.198 C 
BRANCH  79  80
ATOM     80  O6E 3L9 A   1       4.287   2.917 -35.013  0.00  0.00    -0.398 OA
ATOM     81  H56 3L9 A   1       4.686   2.313 -34.383  0.00  0.00     0.209 HD
ENDBRANCH  79  80
ENDBRANCH  71  79
ENDBRANCH  66  67
ENDBRANCH  61  66
BRANCH  62  82
ATOM     82  O3D 3L9 A   1       1.606   2.209 -31.413  0.00  0.00    -0.390 OA
ATOM     83  H24 3L9 A   1       1.999   1.336 -31.334  0.00  0.00     0.210 HD
ENDBRANCH  62  82
BRANCH  63  84
ATOM     84  O4D 3L9 A   1       0.477   0.031 -29.884  0.00  0.00    -0.390 OA
ATOM     85  H34 3L9 A   1       0.678  -0.104 -30.813  0.00  0.00     0.210 HD
ENDBRANCH  63  84
BRANCH  64  86
ATOM     86  C6D 3L9 A   1      -1.176   0.667 -27.738  0.00  0.00     0.213 C 
BRANCH  86  87
ATOM     87  O6D 3L9 A   1      -1.144   1.414 -26.483  0.00  0.00    -0.316 OA
BRANCH  87  88
ATOM     88  C9F 3L9 A   1      -1.767   0.798 -25.454  0.00  0.00     0.282 C 
ATOM     89  O9F 3L9 A   1      -1.715  -0.329 -25.178  0.00  0.00    -0.260 OA
BRANCH  88  90
ATOM     90  C8F 3L9 A   1      -2.406   1.851 -24.550  0.00  0.00     0.083 C 
ATOM     91  C7F 3L9 A   1      -1.647   3.001 -24.470  0.00  0.00     0.017 C 
BRANCH  91  92
ATOM     92  C1F 3L9 A   1      -1.997   4.211 -23.619  0.00  0.00    -0.033 A 
ATOM     93  C2F 3L9 A   1      -1.476   4.415 -22.372  0.00  0.00     0.050 A 
ATOM     94  C3F 3L9 A   1      -1.832   5.514 -21.571  0.00  0.00     0.099 A 
ATOM     95  C4F 3L9 A   1      -2.701   6.451 -22.066  0.00  0.00     0.098 A 
ATOM     96  C5F 3L9 A   1      -3.222   6.267 -23.261  0.00  0.00     0.040 A 
ATOM     97  C6F 3L9 A   1      -2.887   5.196 -24.036  0.00  0.00     0.014 A 
BRANCH  94  98
ATOM     98  O3F 3L9 A   1      -1.247   5.597 -20.388  0.00  0.00    -0.358 OA
ATOM     99  H26 3L9 A   1      -1.834   6.041 -19.771  0.00  0.00     0.217 HD
ENDBRANCH  94  98
BRANCH  95 100
ATOM    100  O4F 3L9 A   1      -3.024   7.482 -21.315  0.00  0.00    -0.358 OA
ATOM    101  H36 3L9 A   1      -3.913   7.771 -21.534  0.00  0.00     0.217 HD
ENDBRANCH  95 100
ENDBRANCH  91  92
ENDBRANCH  88  90
ENDBRANCH  87  88
ENDBRANCH  86  87
ENDBRANCH  64  86
ENDBRANCH  59  60
ENDBRANCH   2  59
BRANCH   3 102
ATOM    102  O3C 3L9 A   1      -2.786   7.850 -29.361  0.00  0.00    -0.390 OA
ATOM    103  H23 3L9 A   1      -2.529   8.158 -28.489  0.00  0.00     0.210 HD
ENDBRANCH   3 102
BRANCH   4 104
ATOM    104  O4C 3L9 A   1      -4.613   7.581 -27.299  0.00  0.00    -0.390 OA
ATOM    105  H33 3L9 A   1      -4.766   7.477 -26.357  0.00  0.00     0.210 HD
ENDBRANCH   4 104
TORSDOF 36
                                                                                                                                                                                                                           
ENDMDL
