@<TRIPOS>MOLECULE
bergenin_dft_6311G
39 41
SMALL
NO_CHARGES


@<TRIPOS>ATOM
1 O1     1.2259    -1.0997     0.0457 O
2 O2     0.9256     2.5335    -0.2258 O
3 O3     3.5325     2.1899     0.8530 O
4 O4     4.8297    -0.2916     0.1107 O
5 O5     2.1170    -3.6637    -0.4309 O
6 O6    -1.2242    -2.1069    -0.6274 O
7 O7    -0.8473     3.8483    -0.3652 O
8 O8    -3.8762    -1.7085    -0.1695 O
9 O9    -4.8633     0.8559     0.1896 O
10 C10     1.4100     1.2693     0.2475 C
11 C11     0.7259     0.1161    -0.4857 C
12 C12     2.9144     1.2047     0.0486 C
13 C13     3.4363    -0.1963     0.4075 C
14 C14     2.6086    -1.2998    -0.2568 C
15 C15    -0.7629     0.2360    -0.2990 C
16 C16     2.9289    -2.7048     0.2260 C
17 C17    -1.2961     1.5229    -0.1206 C
18 C18    -0.4202     2.7336    -0.2261 C
19 C19    -1.6500    -0.8412    -0.3514 C
20 C20    -2.6616     1.7426     0.0352 C
21 C21    -3.0126    -0.6260    -0.1295 C
22 C22    -3.5260     0.6594     0.0381 C
23 C23    -4.1059    -2.3224     1.1198 C
24 H24     1.1890     1.1865     1.3167 H
25 H25     0.9723     0.1684    -1.5588 H
26 H26     3.1244     1.3980    -1.0161 H
27 H27     3.3728    -0.3121     1.4924 H
28 H28     2.7427    -1.2625    -1.3503 H
29 H29     2.7901    -2.7489     1.3142 H
30 H30     3.9669    -2.9512     0.0037 H
31 H31     4.4836     2.0208     0.8416 H
32 H32     4.9523    -0.2551    -0.8469 H
33 H33    -3.0397     2.7512     0.1256 H
34 H34     1.2029    -3.3530    -0.3682 H
35 H35    -2.0169    -2.6424    -0.7834 H
36 H36    -5.3167     0.0295    -0.0295 H
37 H37    -4.5508    -1.6059     1.8133 H
38 H38    -3.1702    -2.6980     1.5393 H
39 H39    -4.7934    -3.1475     0.9446 H
@<TRIPOS>BOND
1 1 11 1
2 1 14 1
3 2 10 1
4 2 18 1
5 3 12 1
6 3 31 1
7 4 13 1
8 4 32 1
9 5 16 1
10 5 34 1
11 6 19 1
12 6 35 1
13 7 18 2
14 8 21 1
15 8 23 1
16 9 22 1
17 9 36 1
18 10 11 1
19 10 12 1
20 10 24 1
21 11 15 1
22 11 25 1
23 12 13 1
24 12 26 1
25 13 14 1
26 13 27 1
27 14 16 1
28 14 28 1
29 15 17 1
30 15 19 2
31 16 29 1
32 16 30 1
33 17 18 1
34 17 20 2
35 19 21 1
36 20 22 1
37 20 33 1
38 21 22 2
39 23 37 1
40 23 38 1
41 23 39 1
