@<TRIPOS>MOLECULE
redocking_result_ligand
105   113    1
SMALL
USER_CHARGES


@<TRIPOS>ATOM
      1 C1C        -9.1900    4.3810  -23.9800 C.3       1 3L9         0.0000 
      2 C2C        -8.5610    3.1700  -24.5800 C.3       1 3L9         0.0000 
      3 C3C        -8.6680    2.0460  -23.5080 C.3       1 3L9         0.0000 
      4 C4C       -10.1370    1.7860  -23.1470 C.3       1 3L9         0.0000 
      5 C5C       -10.7940    3.1470  -22.7820 C.3       1 3L9         0.0000 
      6 O5C       -10.4880    4.1510  -23.6930 O.3       1 3L9         0.0000 
      7 C6C       -12.2880    3.0910  -22.5720 C.3       1 3L9         0.0000 
      8 O27        -8.5040    4.8030  -22.8270 O.3       1 3L9         0.0000 
      9 C10        -7.9140    6.0660  -22.8750 C.3       1 3L9         0.0000 
     10 C9         -6.4920    6.1760  -22.6200 C.3       1 3L9         0.0000 
     11 C3         -5.8760    7.3600  -22.1160 C.3       1 3L9         0.0000 
     12 O13        -5.7970    5.1700  -22.9760 O.3       1 3L9         0.0000 
     13 C2         -4.5760    7.5300  -21.8740 C.3       1 3L9         0.0000 
     14 C4         -6.7560    8.4130  -21.7640 C.3       1 3L9         0.0000 
     15 C1         -4.0570    8.6660  -21.3480 C.3       1 3L9         0.0000 
     16 C6         -4.9030    9.7270  -21.0200 C.3       1 3L9         0.0000 
     17 C5         -6.2640    9.5860  -21.2120 C.3       1 3L9         0.0000 
     18 O12        -8.0540    8.2820  -21.9790 O.3       1 3L9         0.0000 
     19 C11        -8.7120    7.1270  -22.2260 C.3       1 3L9         0.0000 
     20 O30        -3.7560    6.5500  -22.2380 O.3       1 3L9         0.0000 
     21 H64        -3.1520    6.3540  -21.5180 H         1 3L9         0.0000 
     22 O29        -4.4030   10.8120  -20.5370 O.3       1 3L9         0.0000 
     23 H63        -4.4290   11.5020  -21.2040 H         1 3L9         0.0000 
     24 C14       -10.1600    7.1500  -22.3680 C.3       1 3L9         0.0000 
     25 C15       -10.8760    7.6050  -23.4380 C.3       1 3L9         0.0000 
     26 C16       -12.2930    7.5970  -23.5080 C.3       1 3L9         0.0000 
     27 C17       -13.0680    7.0860  -22.4650 C.3       1 3L9         0.0000 
     28 C18       -12.3180    6.5980  -21.3680 C.3       1 3L9         0.0000 
     29 C19       -10.9450    6.6500  -21.3440 C.3       1 3L9         0.0000 
     30 O25       -12.8370    8.0770  -24.5740 O.3       1 3L9         0.0000 
     31 H62       -13.6260    7.5720  -24.7850 H         1 3L9         0.0000 
     32 O24       -14.3110    7.0690  -22.4860 O.3       1 3L9         0.0000 
     33 C1A       -14.9080    5.8440  -22.3430 C.3       1 3L9         0.0000 
     34 C2A       -16.3050    6.0830  -21.7390 C.3       1 3L9         0.0000 
     35 C3A       -17.0420    4.7860  -21.6490 C.3       1 3L9         0.0000 
     36 C4A       -17.0930    4.1020  -23.0430 C.3       1 3L9         0.0000 
     37 C5A       -15.6920    3.9900  -23.5600 C.3       1 3L9         0.0000 
     38 O5A       -15.0350    5.2450  -23.5840 O.3       1 3L9         0.0000 
     39 O2A       -16.1210    6.5050  -20.4730 O.3       1 3L9         0.0000 
     40 H13       -16.5410    7.3600  -20.3550 H         1 3L9         0.0000 
     41 O3A       -18.3500    5.0520  -21.3480 O.3       1 3L9         0.0000 
     42 H21       -18.5200    4.8250  -20.4310 H         1 3L9         0.0000 
     43 O4A       -17.6340    2.8590  -23.0250 O.3       1 3L9         0.0000 
     44 C1B       -18.6860    2.4260  -23.8410 C.3       1 3L9         0.0000 
     45 C2B       -18.1280    1.3260  -24.7560 C.3       1 3L9         0.0000 
     46 C3B       -17.7260    0.1320  -23.8960 C.3       1 3L9         0.0000 
     47 C4B       -18.9050   -0.2880  -22.9780 C.3       1 3L9         0.0000 
     48 C5B       -19.5130    0.9570  -22.2980 C.3       1 3L9         0.0000 
     49 C6B       -20.8510    0.6920  -21.6290 C.3       1 3L9         0.0000 
     50 O5B       -19.6440    2.0370  -23.1820 O.3       1 3L9         0.0000 
     51 O2B       -19.0110    1.0120  -25.6540 O.3       1 3L9         0.0000 
     52 H14       -19.6280    0.3750  -25.2870 H         1 3L9         0.0000 
     53 O3B       -17.3170   -0.8770  -24.7340 O.3       1 3L9         0.0000 
     54 H22       -18.0310   -1.5080  -24.8490 H         1 3L9         0.0000 
     55 O4B       -18.5240   -1.1210  -22.0290 O.3       1 3L9         0.0000 
     56 H32       -18.6050   -0.6920  -21.1740 H         1 3L9         0.0000 
     57 O23       -13.0280    6.1520  -20.3670 O.3       1 3L9         0.0000 
     58 H61       -13.2930    5.2460  -20.5400 H         1 3L9         0.0000 
     59 O2C        -9.0250    2.9570  -25.8560 O.3       1 3L9         0.0000 
     60 C1D        -8.2390    3.0960  -26.9130 C.3       1 3L9         0.0000 
     61 C2D        -7.1880    1.9780  -27.1890 C.3       1 3L9         0.0000 
     62 C3D        -6.3760    2.2950  -28.5270 C.3       1 3L9         0.0000 
     63 C4D        -7.2720    2.7470  -29.6920 C.3       1 3L9         0.0000 
     64 C5D        -8.0960    3.9470  -29.2450 C.3       1 3L9         0.0000 
     65 O5D        -8.8170    3.6660  -28.0530 O.3       1 3L9         0.0000 
     66 O2D        -6.3110    1.8840  -26.1360 O.3       1 3L9         0.0000 
     67 C1E        -5.0470    2.2120  -26.2180 C.3       1 3L9         0.0000 
     68 C2E        -4.7680    3.4220  -25.3290 C.3       1 3L9         0.0000 
     69 C3E        -3.2900    3.7720  -25.4420 C.3       1 3L9         0.0000 
     70 C4E        -2.4440    2.5350  -24.9650 C.3       1 3L9         0.0000 
     71 C5E        -2.8760    1.3500  -25.7770 C.3       1 3L9         0.0000 
     72 O5E        -4.2640    1.1640  -25.6910 O.3       1 3L9         0.0000 
     73 O2E        -5.6310    4.4560  -25.5610 O.3       1 3L9         0.0000 
     74 H15        -6.4640    4.2840  -25.1180 H         1 3L9         0.0000 
     75 O3E        -3.0880    4.8740  -24.6340 O.3       1 3L9         0.0000 
     76 H25        -3.7830    4.9180  -23.9730 H         1 3L9         0.0000 
     77 O4E        -1.1800    2.7690  -25.1970 O.3       1 3L9         0.0000 
     78 H35        -0.7020    2.8060  -24.3650 H         1 3L9         0.0000 
     79 C6E        -2.1920    0.0570  -25.4070 C.3       1 3L9         0.0000 
     80 O6E        -2.9290   -0.6210  -24.4360 O.3       1 3L9         0.0000 
     81 H56        -2.5590   -0.4390  -23.5690 H         1 3L9         0.0000 
     82 O3D        -5.8530    1.0530  -28.8780 O.3       1 3L9         0.0000 
     83 H24        -5.5220    1.0860  -29.7780 H         1 3L9         0.0000 
     84 O4D        -6.4970    3.1370  -30.7740 O.3       1 3L9         0.0000 
     85 H34        -7.0600    3.2700  -31.5400 H         1 3L9         0.0000 
     86 C6D        -8.8720    4.5390  -30.4100 C.3       1 3L9         0.0000 
     87 O6D       -10.1380    5.1470  -30.0040 O.3       1 3L9         0.0000 
     88 C9F       -11.2200    4.3640  -30.2090 C.3       1 3L9         0.0000 
     89 O9F       -11.2790    3.4100  -30.8670 O.3       1 3L9         0.0000 
     90 C8F       -12.3400    4.7990  -29.2660 C.3       1 3L9         0.0000 
     91 C7F       -13.4110    3.9290  -29.2900 C.3       1 3L9         0.0000 
     92 C1F       -14.6920    4.1110  -28.4920 C.3       1 3L9         0.0000 
     93 C2F       -14.8640    5.1230  -27.5890 C.3       1 3L9         0.0000 
     94 C3F       -16.0340    5.2670  -26.8230 C.3       1 3L9         0.0000 
     95 C4F       -17.0710    4.3910  -27.0130 C.3       1 3L9         0.0000 
     96 C5F       -16.9210    3.4040  -27.8710 C.3       1 3L9         0.0000 
     97 C6F       -15.7830    3.2560  -28.6070 C.3       1 3L9         0.0000 
     98 O3F       -16.0730    6.2940  -25.9910 O.3       1 3L9         0.0000 
     99 H26       -16.4950    7.0400  -26.4230 H         1 3L9         0.0000 
    100 O4F       -18.1670    4.5350  -26.2990 O.3       1 3L9         0.0000 
    101 H36       -18.7920    5.0840  -26.7780 H         1 3L9         0.0000 
    102 O3C        -8.0330    0.9590  -23.9150 O.3       1 3L9         0.0000 
    103 H23        -8.5890    0.4740  -24.5290 H         1 3L9         0.0000 
    104 O4C       -10.1150    0.8820  -22.0920 O.3       1 3L9         0.0000 
    105 H33       -10.9670    0.8840  -21.6500 H         1 3L9         0.0000 
@<TRIPOS>BOND
     1    1    2 1    
     2    1    6 1    
     3    1    8 1    
     4    2    3 1    
     5    2   59 1    
     6    3    4 1    
     7    3  102 1    
     8    4    5 1    
     9    4  104 1    
    10    5    6 1    
    11    5    7 1    
    12    8    9 1    
    13    9   10 1    
    14    9   19 1    
    15   10   11 1    
    16   10   12 1    
    17   11   13 1    
    18   11   14 1    
    19   13   15 1    
    20   13   20 1    
    21   14   17 1    
    22   14   18 1    
    23   15   16 1    
    24   16   17 1    
    25   16   22 1    
    26   18   19 1    
    27   19   24 1    
    28   20   21 1    
    29   22   23 1    
    30   24   25 1    
    31   24   29 1    
    32   25   26 1    
    33   26   27 1    
    34   26   30 1    
    35   27   28 1    
    36   27   32 1    
    37   28   29 1    
    38   28   57 1    
    39   30   31 1    
    40   32   33 1    
    41   33   34 1    
    42   33   38 1    
    43   34   35 1    
    44   34   39 1    
    45   35   36 1    
    46   35   41 1    
    47   36   37 1    
    48   36   43 1    
    49   37   38 1    
    50   39   40 1    
    51   41   42 1    
    52   43   44 1    
    53   44   45 1    
    54   44   50 1    
    55   45   46 1    
    56   45   51 1    
    57   46   47 1    
    58   46   53 1    
    59   47   48 1    
    60   47   55 1    
    61   48   49 1    
    62   48   50 1    
    63   51   52 1    
    64   53   54 1    
    65   55   56 1    
    66   57   58 1    
    67   59   60 1    
    68   60   61 1    
    69   60   65 1    
    70   61   62 1    
    71   61   66 1    
    72   62   63 1    
    73   62   82 1    
    74   63   64 1    
    75   63   84 1    
    76   64   65 1    
    77   64   86 1    
    78   66   67 1    
    79   67   68 1    
    80   67   72 1    
    81   68   69 1    
    82   68   73 1    
    83   69   70 1    
    84   69   75 1    
    85   70   71 1    
    86   70   77 1    
    87   71   72 1    
    88   71   79 1    
    89   73   74 1    
    90   75   76 1    
    91   77   78 1    
    92   79   80 1    
    93   80   81 1    
    94   82   83 1    
    95   84   85 1    
    96   86   87 1    
    97   87   88 1    
    98   88   89 1    
    99   88   90 1    
   100   90   91 1    
   101   91   92 1    
   102   92   93 1    
   103   92   97 1    
   104   93   94 1    
   105   94   95 1    
   106   94   98 1    
   107   95   96 1    
   108   95  100 1    
   109   96   97 1    
   110   98   99 1    
   111  100  101 1    
   112  102  103 1    
   113  104  105 1    
@<TRIPOS>SUBSTRUCTURE
     1 3L9         1 GROUP             0 A     ****    0 ROOT    
