# created with PyMOL 2.5.4
@<TRIPOS>MOLECULE
montbretin_A
150 158 1               
SMALL
USER_CHARGES
@<TRIPOS>ATOM
1	  C1	-3.321	6.203	-19.099	C.2	1	3L93L	0.000	
2	 C1A	-14.414	5.710	-20.532	C.3	1	3L93L	0.000	
3	 C1B	-17.898	2.843	-23.142	C.3	1	3L93L	0.000	
4	 C1C	-8.048	4.396	-23.773	C.3	1	3L93L	0.000	
5	 C1D	-6.110	2.865	-26.024	C.3	1	3L93L	0.000	
6	 C1E	-7.279	-0.087	-27.438	C.3	1	3L93L	0.000	
7	 C1F	-5.489	8.858	-22.110	C.2	1	3L93L	0.000	
8	  C2	-3.942	5.636	-20.162	C.2	1	3L93L	0.000	
9	 C2A	-15.832	6.129	-20.100	C.3	1	3L93L	0.000	
10	 C2B	-18.505	1.451	-22.914	C.3	1	3L93L	0.000	
11	 C2C	-7.719	3.046	-24.313	C.3	1	3L93L	0.000	
12	 C2D	-5.907	1.816	-27.159	C.3	1	3L93L	0.000	
13	 C2E	-7.254	-1.550	-27.002	C.3	1	3L93L	0.000	
14	 C2F	-6.757	9.203	-21.734	C.2	1	3L93L	0.000	
15	 O2A	-15.779	6.401	-18.781	O.3	1	3L93L	0.000	
16	 O2B	-18.790	0.903	-24.056	O.3	1	3L93L	0.000	
17	 O2C	-7.349	3.122	-25.634	O.3	1	3L93L	0.000	
18	 O2D	-6.388	0.592	-26.762	O.3	1	3L93L	0.000	
19	 O2E	-5.998	-2.088	-27.035	O.3	1	3L93L	0.000	
20	  C3	-5.243	5.778	-20.413	C.2	1	3L93L	0.000	
21	 C3A	-16.766	4.972	-20.255	C.3	1	3L93L	0.000	
22	 C3B	-19.731	1.593	-22.017	C.3	1	3L93L	0.000	
23	 C3C	-8.881	2.106	-23.876	C.3	1	3L93L	0.000	
24	 C3D	-4.358	1.682	-27.524	C.3	1	3L93L	0.000	
25	 C3E	-8.306	-2.309	-27.801	C.3	1	3L93L	0.000	
26	 C3F	-7.032	9.911	-20.551	C.2	1	3L93L	0.000	
27	 O3A	-18.048	5.428	-20.106	O.3	1	3L93L	0.000	
28	 O3B	-20.316	0.356	-21.898	O.3	1	3L93L	0.000	
29	 O3C	-8.617	0.856	-24.219	O.3	1	3L93L	0.000	
30	 O3D	-4.384	1.112	-28.795	O.3	1	3L93L	0.000	
31	 O3E	-8.238	-3.624	-27.383	O.3	1	3L93L	0.000	
32	 O3F	-8.304	10.175	-20.302	O.3	1	3L93L	0.000	
33	  C4	-6.015	6.529	-19.493	C.2	1	3L93L	0.000	
34	 C4A	-16.711	4.431	-21.710	C.3	1	3L93L	0.000	
35	 C4B	-20.695	2.663	-22.595	C.3	1	3L93L	0.000	
36	 C4C	-10.219	2.613	-24.430	C.3	1	3L93L	0.000	
37	 C4D	-3.644	3.037	-27.658	C.3	1	3L93L	0.000	
38	 C4E	-9.714	-1.674	-27.506	C.3	1	3L93L	0.000	
39	 C4F	-6.001	10.235	-19.708	C.2	1	3L93L	0.000	
40	 O4A	-17.434	3.301	-21.903	O.3	1	3L93L	0.000	
41	 O4B	-21.619	3.021	-21.724	O.3	1	3L93L	0.000	
42	 O4C	-11.196	1.799	-23.870	O.3	1	3L93L	0.000	
43	 O4D	-2.281	2.849	-27.838	O.3	1	3L93L	0.000	
44	 O4E	-10.600	-2.218	-28.297	O.3	1	3L93L	0.000	
45	 O4F	-6.265	10.891	-18.599	O.3	1	3L93L	0.000	
46	  C5	-5.418	7.115	-18.387	C.2	1	3L93L	0.000	
47	 C5A	-15.282	4.130	-22.042	C.3	1	3L93L	0.000	
48	 C5B	-19.904	3.927	-22.992	C.3	1	3L93L	0.000	
49	 C5C	-10.366	4.112	-24.044	C.3	1	3L93L	0.000	
50	 C5D	-3.845	3.831	-26.374	C.3	1	3L93L	0.000	
51	 C5E	-9.624	-0.208	-27.813	C.3	1	3L93L	0.000	
52	 C5F	-4.771	9.920	-20.058	C.2	1	3L93L	0.000	
53	 O5A	-14.443	5.253	-21.838	O.3	1	3L93L	0.000	
54	 O5B	-18.702	3.621	-23.644	O.3	1	3L93L	0.000	
55	 O5C	-9.211	4.844	-24.289	O.3	1	3L93L	0.000	
56	 O5D	-5.223	3.948	-26.048	O.3	1	3L93L	0.000	
57	 O5E	-8.566	0.387	-27.108	O.3	1	3L93L	0.000	
58	  C6	-4.057	6.971	-18.195	C.2	1	3L93L	0.000	
59	 C6B	-20.701	4.902	-23.841	C.3	1	3L93L	0.000	
60	 C6C	-11.551	4.811	-24.666	C.3	1	3L93L	0.000	
61	 C6D	-3.017	5.105	-26.386	C.3	1	3L93L	0.000	
62	 C6E	-10.887	0.568	-27.533	C.3	1	3L93L	0.000	
63	 C6F	-4.501	9.243	-21.210	C.2	1	3L93L	0.000	
64	 O6D	-3.060	5.827	-25.116	O.3	1	3L93L	0.000	
65	 O6E	-10.919	1.734	-28.297	O.3	1	3L93L	0.000	
66	 C7F	-5.185	8.130	-23.409	C.2	1	3L93L	0.000	
67	 C8F	-4.116	7.278	-23.600	C.2	1	3L93L	0.000	
68	  C9	-5.967	5.170	-21.482	C.2	1	3L93L	0.000	
69	 C9F	-4.056	6.736	-25.027	C.2	1	3L93L	0.000	
70	 O9F	-4.857	6.977	-25.832	O.co2	1	3L93L	0.000	
71	 C10	-7.383	5.381	-21.706	C.2	1	3L93L	0.000	
72	 C11	-8.082	5.961	-20.540	C.2	1	3L93L	0.000	
73	 O12	-7.312	6.687	-19.700	O.3	1	3L93L	0.000	
74	 O13	-5.374	4.479	-22.373	O.2	1	3L93L	0.000	
75	 C14	-9.514	6.219	-20.595	C.2	1	3L93L	0.000	
76	 C15	-10.216	6.751	-21.638	C.2	1	3L93L	0.000	
77	 C16	-11.616	6.976	-21.621	C.2	1	3L93L	0.000	
78	 C17	-12.393	6.636	-20.512	C.2	1	3L93L	0.000	
79	 C18	-11.661	6.066	-19.442	C.2	1	3L93L	0.000	
80	 C19	-10.299	5.890	-19.504	C.2	1	3L93L	0.000	
81	 O23	-12.365	5.778	-18.381	O.3	1	3L93L	0.000	
82	 O24	-13.620	6.825	-20.456	O.3	1	3L93L	0.000	
83	 O25	-12.145	7.504	-22.672	O.3	1	3L93L	0.000	
84	 O27	-8.108	4.391	-22.368	O.3	1	3L93L	0.000	
85	 O29	-3.459	7.523	-17.196	O.3	1	3L93L	0.000	
86	 O30	-3.221	4.957	-21.048	O.3	1	3L93L	0.000	
87	 H01	-2.251	6.060	-18.951	 H	1	3L93L	0.000	
88	 H02	-14.032	4.915	-19.892	 H	1	3L93L	0.000	
89	 H03	-17.076	2.780	-23.855	 H	1	3L93L	0.000	
90	 H04	-7.247	5.072	-24.071	 H	1	3L93L	0.000	
91	 H05	-5.778	2.297	-25.155	 H	1	3L93L	0.000	
92	 H06	-7.059	0.019	-28.500	 H	1	3L93L	0.000	
93	 H07	-16.168	6.977	-20.697	 H	1	3L93L	0.000	
94	 H08	-17.792	0.795	-22.414	 H	1	3L93L	0.000	
95	 H09	-6.820	2.586	-23.903	 H	1	3L93L	0.000	
96	 H10	-6.454	2.153	-28.040	 H	1	3L93L	0.000	
97	 H11	-7.522	-1.634	-25.949	 H	1	3L93L	0.000	
98	 H12	-7.589	8.918	-22.378	 H	1	3L93L	0.000	
99	 H13	-15.058	5.909	-18.381	 H	1	3L93L	0.000	
100	 H14	-19.038	-0.014	-23.918	 H	1	3L93L	0.000	
101	 H15	-5.706	-2.165	-27.946	 H	1	3L93L	0.000	
102	 H16	-16.488	4.210	-19.527	 H	1	3L93L	0.000	
103	 H17	-19.454	1.940	-21.022	 H	1	3L93L	0.000	
104	 H18	-8.970	2.119	-22.790	 H	1	3L93L	0.000	
105	 H19	-3.832	1.124	-26.750	 H	1	3L93L	0.000	
106	 H20	-8.141	-2.256	-28.877	 H	1	3L93L	0.000	
107	 H21	-18.331	5.859	-20.916	 H	1	3L93L	0.000	
108	 H22	-20.443	0.149	-20.969	 H	1	3L93L	0.000	
109	 H23	-8.610	0.781	-25.176	 H	1	3L93L	0.000	
110	 H24	-5.225	0.669	-28.931	 H	1	3L93L	0.000	
111	 H25	-7.967	-4.180	-28.117	 H	1	3L93L	0.000	
112	 H26	-8.575	10.947	-20.804	 H	1	3L93L	0.000	
113	 H27	-17.142	5.200	-22.351	 H	1	3L93L	0.000	
114	 H28	-21.180	2.215	-23.462	 H	1	3L93L	0.000	
115	 H29	-10.299	2.562	-25.516	 H	1	3L93L	0.000	
116	 H30	-4.057	3.568	-28.516	 H	1	3L93L	0.000	
117	 H31	-10.002	-1.837	-26.468	 H	1	3L93L	0.000	
118	 H32	-21.782	3.964	-21.799	 H	1	3L93L	0.000	
119	 H33	-11.387	2.095	-22.977	 H	1	3L93L	0.000	
120	 H34	-1.993	3.324	-28.621	 H	1	3L93L	0.000	
121	 H35	-10.870	-3.067	-27.940	 H	1	3L93L	0.000	
122	 H36	-6.135	11.831	-18.744	 H	1	3L93L	0.000	
123	 H37	-6.017	7.684	-17.676	 H	1	3L93L	0.000	
124	 H38	-15.231	3.859	-23.096	 H	1	3L93L	0.000	
125	 H39	-14.937	3.312	-21.409	 H	1	3L93L	0.000	
126	 H40	-19.682	4.416	-22.044	 H	1	3L93L	0.000	
127	 H41	-10.547	4.079	-22.970	 H	1	3L93L	0.000	
128	 H42	-3.443	3.283	-25.522	 H	1	3L93L	0.000	
129	 H43	-9.451	-0.161	-28.888	 H	1	3L93L	0.000	
130	 H44	-3.945	10.209	-19.408	 H	1	3L93L	0.000	
131	 H45	-21.614	5.180	-23.314	 H	1	3L93L	0.000	
132	 H46	-20.104	5.794	-24.028	 H	1	3L93L	0.000	
133	 H47	-20.959	4.432	-24.790	 H	1	3L93L	0.000	
134	 H48	-12.363	4.863	-23.941	 H	1	3L93L	0.000	
135	 H49	-11.264	5.820	-24.963	 H	1	3L93L	0.000	
136	 H50	-11.883	4.255	-25.543	 H	1	3L93L	0.000	
137	 H51	-3.440	5.761	-27.147	 H	1	3L93L	0.000	
138	 H52	-1.981	4.845	-26.603	 H	1	3L93L	0.000	
139	 H53	-10.911	0.836	-26.477	 H	1	3L93L	0.000	
140	 H54	-11.751	-0.049	-27.781	 H	1	3L93L	0.000	
141	 H55	-3.465	8.992	-21.436	 H	1	3L93L	0.000	
142	 H56	-11.632	1.678	-28.937	 H	1	3L93L	0.000	
143	 H57	-5.859	8.292	-24.250	 H	1	3L93L	0.000	
144	 H58	-3.397	7.021	-22.822	 H	1	3L93L	0.000	
145	 H59	-9.666	7.020	-22.540	 H	1	3L93L	0.000	
146	 H60	-9.803	5.461	-18.633	 H	1	3L93L	0.000	
147	 H61	-12.459	6.563	-17.836	 H	1	3L93L	0.000	
148	 H62	-12.377	6.812	-23.296	 H	1	3L93L	0.000	
149	 H63	-3.223	6.851	-16.552	 H	1	3L93L	0.000	
150	 H64	-3.111	5.484	-21.843	 H	1	3L93L	0.000	
@<TRIPOS>BOND
1 1 8 ar
2 1 58 ar
3 1 87 1
4 2 9 1
5 2 53 1
6 2 88 1
7 3 10 1
8 3 54 1
9 3 89 1
10 4 84 1
11 4 90 1
12 5 17 1
13 5 91 1
14 6 13 1
15 6 57 1
16 6 92 1
17 7 66 1
18 8 20 ar
19 8 86 1
20 9 15 1
21 9 21 1
22 9 93 1
23 10 16 1
24 10 94 1
25 4 11 1
26 11 23 1
27 11 95 1
28 5 12 1
29 12 18 1
30 12 96 1
31 13 19 1
32 13 97 1
33 7 14 ar
34 14 26 ar
35 14 98 1
36 15 99 1
37 16 100 1
38 11 17 1
39 6 18 1
40 19 101 1
41 20 33 ar
42 20 68 1
43 21 27 1
44 21 34 1
45 21 102 1
46 10 22 1
47 22 28 1
48 22 103 1
49 23 29 1
50 23 36 1
51 23 104 1
52 12 24 1
53 24 30 1
54 24 105 1
55 13 25 1
56 25 31 1
57 25 106 1
58 26 32 1
59 26 39 ar
60 27 107 1
61 28 108 1
62 29 109 1
63 30 110 1
64 31 111 1
65 32 112 1
66 33 46 ar
67 33 73 1
68 34 40 1
69 34 113 1
70 22 35 1
71 35 41 1
72 35 114 1
73 36 42 1
74 36 49 1
75 36 115 1
76 24 37 1
77 37 43 1
78 37 116 1
79 25 38 1
80 38 44 1
81 38 117 1
82 39 45 1
83 39 52 ar
84 3 40 1
85 41 118 1
86 42 119 1
87 43 120 1
88 44 121 1
89 45 122 1
90 46 123 1
91 34 47 1
92 47 124 1
93 47 125 1
94 35 48 1
95 48 59 1
96 48 126 1
97 49 55 1
98 49 60 1
99 49 127 1
100 37 50 1
101 50 56 1
102 50 128 1
103 38 51 1
104 51 62 1
105 51 129 1
106 52 63 ar
107 52 130 1
108 47 53 1
109 48 54 1
110 4 55 1
111 5 56 1
112 51 57 1
113 46 58 ar
114 58 85 1
115 59 131 1
116 59 132 1
117 59 133 1
118 60 134 1
119 60 135 1
120 60 136 1
121 50 61 1
122 61 137 1
123 61 138 1
124 62 65 1
125 62 139 1
126 62 140 1
127 7 63 ar
128 63 141 1
129 61 64 1
130 65 142 1
131 66 67 2
132 66 143 1
133 67 69 1
134 67 144 1
135 68 74 2
136 64 69 1
137 69 70 2
138 68 71 1
139 71 72 2
140 72 75 1
141 72 73 1
142 75 76 ar
143 75 80 ar
144 76 77 ar
145 76 145 1
146 77 78 ar
147 77 83 1
148 78 82 1
149 78 79 ar
150 79 81 1
151 79 80 ar
152 80 146 1
153 81 147 1
154 2 82 1
155 83 148 1
156 71 84 1
157 85 149 1
158 86 150 1
@<TRIPOS>SUBSTRUCTURE
1	3L93L	1	GROUP	1 A	3L9
